
     RDKit          3D

 15 15  0  0  0  0  0  0  0  0999 V2000
   16.1930    2.2530  -14.6560 C   0  0  0  0  0  0  0  0  0  0  0  0
   17.0010    3.1750  -13.9950 O   0  0  0  0  0  0  0  0  0  0  0  0
   16.7320    3.2050  -12.6340 C   0  0  0  0  0  0  0  0  0  0  0  0
   15.8300    3.8690  -12.2460 O   0  0  0  0  0  0  0  0  0  0  0  0
   17.5890    2.3630  -11.7020 C   0  0  0  0  0  0  0  0  0  0  0  0
   18.6870    1.6850  -12.1960 C   0  0  0  0  0  0  0  0  0  0  0  0
   19.4620    0.9130  -11.3510 C   0  0  0  0  0  0  0  0  0  0  0  0
   19.1520    0.8120  -10.0100 C   0  0  0  0  0  0  0  0  0  0  0  0
   18.0580    1.4900   -9.5050 C   0  0  0  0  0  0  0  0  0  0  0  0
   17.7520    1.3600   -8.0880 N   0  0  0  0  0  0  0  0  0  0  0  0
   17.4190    2.7190   -7.1100 S   0  0  1  0  0  0  0  0  0  0  0  0
   17.1910    2.3210   -5.7080 O   0  0  0  0  0  0  0  0  0  0  0  0
   18.5840    3.5920   -6.9680 O   0  0  0  0  0  0  0  0  0  0  0  0
   16.0080    3.6000   -7.7050 C   0  0  0  0  0  0  0  0  0  0  0  0
   17.2820    2.2640  -10.3610 C   0  0  0  0  0  0  0  0  0  0  0  0
  1  2  1  0
  2  3  1  0
  3  4  2  0
  3  5  1  0
  5  6  2  0
  5 15  1  0
  6  7  1  0
 15  9  2  0
  7  8  2  0
  8  9  1  0
  9 10  1  0
 10 11  1  0
 11 12  2  0
 11 13  2  0
 11 14  1  6
M  END
