
     RDKit          3D

 18 19  0  0  0  0  0  0  0  0999 V2000
   13.1470   -1.0080   22.6370 C   0  0  0  0  0  0  0  0  0  0  0  0
   12.3320   -1.2640   23.8250 N   0  0  0  0  0  0  0  0  0  0  0  0
    7.9000   -2.3440   25.7650 O   0  0  0  0  0  0  0  0  0  0  0  0
   11.6000   -0.0670   24.2270 C   0  0  0  0  0  0  0  0  0  0  0  0
    9.9710   -1.4630   25.4310 N   0  0  0  0  0  0  0  0  0  0  0  0
    7.3300   -0.4400   27.6490 O   0  0  0  0  0  0  0  0  0  0  0  0
   10.8860   -0.3240   25.5320 C   0  0  0  0  0  0  0  0  0  0  0  0
   10.5900   -2.6590   24.8540 C   0  0  0  0  0  0  0  0  0  0  0  0
   11.3670   -2.3390   23.5950 C   0  0  0  0  0  0  0  0  0  0  0  0
    8.7030   -1.4190   25.8960 C   0  0  0  0  0  0  0  0  0  0  0  0
    8.2750   -0.1550   26.6280 C   0  0  0  0  0  0  0  0  0  0  0  0
    6.9020    0.6160   28.4120 C   0  0  0  0  0  0  0  0  0  0  0  0
    7.6470    1.7840   28.5250 C   0  0  0  0  0  0  0  0  0  0  0  0
    7.1790    2.8210   29.3160 C   0  0  0  0  0  0  0  0  0  0  0  0
    5.9800    2.7300   29.9940 C   0  0  0  0  0  0  0  0  0  0  0  0
    5.4880    3.8610   30.8470 C   0  0  0  0  0  0  0  0  0  0  0  0
    5.2510    1.5610   29.8680 C   0  0  0  0  0  0  0  0  0  0  0  0
    5.6980    0.5040   29.0910 C   0  0  0  0  0  0  0  0  0  0  0  0
  1  2  1  0
  2  4  1  0
  2  9  1  0
  4  7  1  0
  9  8  1  0
  3 10  2  0
 10  5  1  0
 10 11  1  0
  7  5  1  0
  5  8  1  0
  6 11  1  0
  6 12  1  0
 12 13  2  0
 12 18  1  0
 13 14  1  0
 18 17  2  0
 14 15  2  0
 15 16  1  0
 15 17  1  0
M  END
