
     RDKit          3D

 16 17  0  0  0  0  0  0  0  0999 V2000
    9.0980    0.7170   20.8630 O   0  0  0  0  0  0  0  0  0  0  0  0
    8.5440   -0.2000   21.3730 C   0  0  0  0  0  0  0  0  0  0  0  0
    9.1810   -0.9260   22.4450 N   0  0  0  0  0  0  0  0  0  0  0  0
   10.4660   -0.4470   22.8510 C   0  0  0  0  0  0  0  0  0  0  0  0
   10.5000    0.3870   23.9490 C   0  0  0  0  0  0  0  0  0  0  0  0
   11.7040    0.9000   24.3650 C   0  0  0  0  0  0  0  0  0  0  0  0
   12.8650    0.5840   23.6730 C   0  0  0  0  0  0  0  0  0  0  0  0
   12.8230   -0.2500   22.5690 C   0  0  0  0  0  0  0  0  0  0  0  0
   11.6120   -0.7630   22.1470 C   0  0  0  0  0  0  0  0  0  0  0  0
    7.2370   -0.6260   20.9410 N   0  0  0  0  0  0  0  0  0  0  0  0
    6.5590    0.0580   19.8740 C   0  0  0  0  0  0  0  0  0  0  0  0
    5.3530    0.6830   20.1520 C   0  0  0  0  0  0  0  0  0  0  0  0
    4.7260    1.3390   19.1050 C   0  0  0  0  0  0  0  0  0  0  0  0
    5.3210    1.3050   17.8490 C   0  0  0  0  0  0  0  0  0  0  0  0
    6.4720    0.7100   17.6440 N   0  0  0  0  0  0  0  0  0  0  0  0
    7.1030    0.0840   18.6020 C   0  0  0  0  0  0  0  0  0  0  0  0
  1  2  2  0
  2  3  1  0
  2 10  1  0
  3  4  1  0
 10 11  1  0
  4  5  2  0
  4  9  1  0
  5  6  1  0
  9  8  2  0
  6  7  2  0
  7  8  1  0
 11 12  2  0
 11 16  1  0
 12 13  1  0
 16 15  2  0
 13 14  2  0
 14 15  1  0
M  END
