
     RDKit          3D

 15 17  0  0  0  0  0  0  0  0999 V2000
    2.2980  -24.9800    0.9380 C   0  0  0  0  0  0  0  0  0  0  0  0
    2.0680  -23.6180    0.8010 C   0  0  0  0  0  0  0  0  0  0  0  0
    3.0230  -22.8300    0.2860 N   0  0  0  0  0  0  0  0  0  0  0  0
    4.1770  -23.3670   -0.0940 C   0  0  0  0  0  0  0  0  0  0  0  0
    5.2440  -22.4930   -0.6680 N   0  0  0  0  0  0  0  0  0  0  0  0
    6.4690  -22.8990   -1.0490 C   0  0  0  0  0  0  0  0  0  0  0  0
    7.3190  -21.5860   -1.2510 C   0  0  0  0  0  0  0  0  0  0  0  0
    6.2200  -20.4990   -1.5320 C   0  0  1  0  0  0  0  0  0  0  0  0
    6.7370  -19.0820   -1.2640 C   0  0  0  0  0  0  0  0  0  0  0  0
    7.3870  -18.7500   -2.4160 C   0  0  0  0  0  0  0  0  0  0  0  0
    6.7240  -19.6580   -3.6260 O   0  0  0  0  0  0  0  0  0  0  0  0
    5.8150  -20.4470   -3.0870 C   0  0  0  0  0  0  0  0  0  0  0  0
    5.1880  -20.8450   -0.7330 C   0  0  0  0  0  0  0  0  0  0  0  0
    4.4110  -24.7430    0.0400 C   0  0  0  0  0  0  0  0  0  0  0  0
    3.4650  -25.5160    0.5620 N   0  0  0  0  0  0  0  0  0  0  0  0
  1  2  2  0
  1 15  1  0
  2  3  1  0
 15 14  2  0
  3  4  2  0
  4  5  1  0
  4 14  1  0
  5  6  1  0
  5 13  1  0
  6  7  1  0
  8 13  1  1
  7  8  1  0
  8  9  1  0
  8 12  1  0
  9 10  1  0
 12 11  1  0
 10 11  1  0
M  END
