
     RDKit          3D

 18 19  0  0  0  0  0  0  0  0999 V2000
    2.8110    1.4890   24.2040 O   0  0  0  0  0  0  0  0  0  0  0  0
    2.8500    2.3280   23.3540 C   0  0  0  0  0  0  0  0  0  0  0  0
    3.9960    2.4620   22.4700 N   0  0  0  0  0  0  0  0  0  0  0  0
    5.1310    1.5700   22.5580 C   0  0  0  0  0  0  0  0  0  0  0  0
    4.8090    0.3310   21.7270 C   0  0  0  0  0  0  0  0  0  0  0  0
    5.2400    0.4410   20.2650 C   0  0  0  0  0  0  0  0  0  0  0  0
    6.3130   -0.3290   19.8130 C   0  0  0  0  0  0  0  0  0  0  0  0
    6.7000   -0.2210   18.4840 C   0  0  0  0  0  0  0  0  0  0  0  0
    6.0640    0.5830   17.6620 N   0  0  0  0  0  0  0  0  0  0  0  0
    5.0270    1.3200   18.0640 C   0  0  0  0  0  0  0  0  0  0  0  0
    4.5710    1.2890   19.3780 C   0  0  0  0  0  0  0  0  0  0  0  0
    1.7700    3.2700   23.1340 N   0  0  0  0  0  0  0  0  0  0  0  0
    0.5690    3.3120   23.9420 C   0  0  1  0  0  0  0  0  0  0  0  0
    0.4560    4.7540   24.4430 C   0  0  0  0  0  0  0  0  0  0  0  0
   -0.8680    5.0070   25.1450 C   0  0  0  0  0  0  0  0  0  0  0  0
   -2.0330    4.6860   24.2190 C   0  0  0  0  0  0  0  0  0  0  0  0
   -1.9740    3.2520   23.7090 C   0  0  0  0  0  0  0  0  0  0  0  0
   -0.6190    2.8970   23.0880 C   0  0  0  0  0  0  0  0  0  0  0  0
  1  2  2  0
  2  3  1  0
  2 12  1  0
  3  4  1  0
 13 12  1  6
  4  5  1  0
  5  6  1  0
  6  7  2  0
  6 11  1  0
  7  8  1  0
 11 10  2  0
  8  9  2  0
  9 10  1  0
 13 14  1  0
 13 18  1  0
 14 15  1  0
 18 17  1  0
 15 16  1  0
 16 17  1  0
M  END
