
     RDKit          3D

 15 16  0  0  0  0  0  0  0  0999 V2000
    6.9480   -2.3150   20.8270 N   0  0  0  0  0  0  0  0  0  0  0  0
    7.2260   -2.4370   18.3720 C   0  0  0  0  0  0  0  0  0  0  0  0
    5.7240   -3.7730   19.6430 O   0  0  0  0  0  0  0  0  0  0  0  0
    6.5700   -2.8860   19.6650 C   0  0  0  0  0  0  0  0  0  0  0  0
    8.6640   -2.0630   23.1080 N   0  0  0  0  0  0  0  0  0  0  0  0
    6.5280   -2.8080   22.1350 C   0  0  0  0  0  0  0  0  0  0  0  0
    7.7390   -3.1900   22.9550 C   0  0  0  0  0  0  0  0  0  0  0  0
    9.8370   -2.4660   23.8860 C   0  0  0  0  0  0  0  0  0  0  0  0
   10.9150   -1.4120   23.8810 C   0  0  0  0  0  0  0  0  0  0  0  0
   12.0180   -1.3410   22.9780 C   0  0  0  0  0  0  0  0  0  0  0  0
   12.7240   -0.1940   23.0690 C   0  0  0  0  0  0  0  0  0  0  0  0
   10.9430   -0.3240   24.7470 C   0  0  0  0  0  0  0  0  0  0  0  0
    9.0510   -1.5740   21.7790 C   0  0  0  0  0  0  0  0  0  0  0  0
    7.8420   -1.1720   20.9690 C   0  0  0  0  0  0  0  0  0  0  0  0
   12.0820    0.8300   24.2490 S   0  0  0  0  0  0  0  0  0  0  0  0
  1  4  1  0
  1  6  1  0
  1 14  1  0
  4  2  1  0
  4  3  2  0
  6  7  1  0
 14 13  1  0
  5  7  1  0
  5  8  1  0
  5 13  1  0
  8  9  1  0
  9 10  1  0
  9 12  2  0
 10 11  2  0
 12 15  1  0
 11 15  1  0
M  END
