
     RDKit          3D

 18 19  0  0  0  0  0  0  0  0999 V2000
   10.5200   -4.3490   25.9040 C   0  0  0  0  0  0  0  0  0  0  0  0
    9.4210   -4.3970   24.9050 C   0  0  0  0  0  0  0  0  0  0  0  0
    8.7480   -5.5790   24.6770 C   0  0  0  0  0  0  0  0  0  0  0  0
    7.7320   -5.6570   23.7500 C   0  0  0  0  0  0  0  0  0  0  0  0
    7.3720   -4.5230   23.0280 C   0  0  0  0  0  0  0  0  0  0  0  0
    6.3070   -4.6000   22.0760 N   0  0  0  0  0  0  0  0  0  0  0  0
    6.5390   -4.3030   20.7660 C   0  0  0  0  0  0  0  0  0  0  0  0
    5.7430   -4.6010   19.8880 O   0  0  0  0  0  0  0  0  0  0  0  0
    7.8240   -3.5690   20.4560 C   0  0  0  0  0  0  0  0  0  0  0  0
    4.9900   -5.0050   22.5510 C   0  0  2  0  0  0  0  0  0  0  0  0
    4.7790   -4.4990   23.9730 C   0  0  0  0  0  0  0  0  0  0  0  0
    4.1570   -5.3430   24.7860 C   0  0  0  0  0  0  0  0  0  0  0  0
    3.8170   -6.8670   24.0040 S   0  0  2  0  0  0  0  0  0  0  0  0
    2.4340   -6.9450   23.6170 O   0  0  0  0  0  0  0  0  0  0  0  0
    4.3530   -7.9490   24.7840 O   0  0  0  0  0  0  0  0  0  0  0  0
    4.8380   -6.5310   22.5840 C   0  0  0  0  0  0  0  0  0  0  0  0
    8.0350   -3.3180   23.2540 C   0  0  0  0  0  0  0  0  0  0  0  0
    9.0600   -3.2730   24.1780 C   0  0  0  0  0  0  0  0  0  0  0  0
  1  2  1  0
  2  3  2  0
  2 18  1  0
  3  4  1  0
 18 17  2  0
  4  5  2  0
  5  6  1  0
  5 17  1  0
  6  7  1  0
 10  6  1  1
  7  8  2  0
  7  9  1  0
 10 11  1  0
 10 16  1  0
 11 12  2  0
 13 16  1  6
 12 13  1  0
 13 14  2  0
 13 15  2  0
M  END
