
     RDKit          3D

 18 20  0  0  0  0  0  0  0  0999 V2000
    7.0070   -4.5280   21.3040 N   0  0  0  0  0  0  0  0  0  0  0  0
    7.2640   -2.9630   19.4090 C   0  0  0  0  0  0  0  0  0  0  0  0
    5.4820   -4.5070   19.6630 O   0  0  0  0  0  0  0  0  0  0  0  0
    6.5120   -4.0520   20.1430 C   0  0  0  0  0  0  0  0  0  0  0  0
    9.8750   -2.3130   23.7180 N   0  0  0  0  0  0  0  0  0  0  0  0
    6.1780   -5.3960   22.1500 C   0  0  0  0  0  0  0  0  0  0  0  0
    7.0250   -6.3060   23.0170 C   0  0  0  0  0  0  0  0  0  0  0  0
    7.8800   -5.4850   23.9850 C   0  0  0  0  0  0  0  0  0  0  0  0
    8.2500   -4.1320   23.3660 C   0  0  2  0  0  0  0  0  0  0  0  0
    8.3330   -4.2730   21.8570 C   0  0  0  0  0  0  0  0  0  0  0  0
    9.5160   -3.5370   23.9410 C   0  0  0  0  0  0  0  0  0  0  0  0
   11.0890   -2.0350   24.3410 C   0  0  0  0  0  0  0  0  0  0  0  0
   11.7730   -0.8250   24.2880 C   0  0  0  0  0  0  0  0  0  0  0  0
   12.9720   -0.7170   24.9590 C   0  0  0  0  0  0  0  0  0  0  0  0
   13.5030   -1.7790   25.6790 C   0  0  0  0  0  0  0  0  0  0  0  0
   12.8380   -2.9820   25.7530 C   0  0  0  0  0  0  0  0  0  0  0  0
   11.6270   -3.0980   25.0750 C   0  0  0  0  0  0  0  0  0  0  0  0
   10.5710   -4.4710   24.9750 S   0  0  0  0  0  0  0  0  0  0  0  0
  1  4  1  0
  1  6  1  0
  1 10  1  0
  4  2  1  0
  4  3  2  0
  6  7  1  0
 10  9  1  0
  5 11  2  0
  5 12  1  0
  9 11  1  1
 11 18  1  0
 12 13  2  0
 12 17  1  0
  7  8  1  0
  8  9  1  0
 18 17  1  0
 13 14  1  0
 17 16  2  0
 14 15  2  0
 15 16  1  0
M  END
