
     RDKit          3D

 16 17  0  0  0  0  0  0  0  0999 V2000
   22.9810  -17.3290   24.5510 C   0  0  0  0  0  0  0  0  0  0  0  0
   23.1130  -18.5360   24.1700 N   0  0  0  0  0  0  0  0  0  0  0  0
   21.9480  -19.2970   24.3150 C   0  0  0  0  0  0  0  0  0  0  0  0
   22.1410  -20.7660   23.9280 C   0  0  0  0  0  0  0  0  0  0  0  0
   22.7560  -20.9660   22.6580 N   0  0  0  0  0  0  0  0  0  0  0  0
   23.9060  -20.1290   22.5150 C   0  0  0  0  0  0  0  0  0  0  0  0
   23.6570  -18.6760   22.8920 C   0  0  0  0  0  0  0  0  0  0  0  0
   22.2430  -21.9340   21.6840 C   0  0  0  0  0  0  0  0  0  0  0  0
   21.2690  -22.5620   21.9350 O   0  0  0  0  0  0  0  0  0  0  0  0
   22.8710  -22.1180   20.3960 N   0  0  0  0  0  0  0  0  0  0  0  0
   22.3600  -23.0520   19.4140 C   0  0  0  0  0  0  0  0  0  0  0  0
   22.0140  -24.3490   19.7550 C   0  0  0  0  0  0  0  0  0  0  0  0
   21.5460  -25.2190   18.7810 C   0  0  0  0  0  0  0  0  0  0  0  0
   21.4240  -24.7960   17.4650 C   0  0  0  0  0  0  0  0  0  0  0  0
   21.7690  -23.4980   17.1180 C   0  0  0  0  0  0  0  0  0  0  0  0
   22.2390  -22.6260   18.0930 C   0  0  0  0  0  0  0  0  0  0  0  0
  1  2  1  0
  2  3  1  0
  2  7  1  0
  3  4  1  0
  7  6  1  0
  4  5  1  0
  5  6  1  0
  5  8  1  0
  8  9  2  0
  8 10  1  0
 10 11  1  0
 11 12  2  0
 11 16  1  0
 12 13  1  0
 16 15  2  0
 13 14  2  0
 14 15  1  0
M  END
