
     RDKit          3D

 16 17  0  0  0  0  0  0  0  0999 V2000
    6.7810   -2.6860   20.9580 N   0  0  0  0  0  0  0  0  0  0  0  0
    7.0570   -2.5030   18.5100 C   0  0  0  0  0  0  0  0  0  0  0  0
    5.7140   -4.1330   19.6030 O   0  0  0  0  0  0  0  0  0  0  0  0
    7.6550   -5.9720   28.4680 Cl  0  0  0  0  0  0  0  0  0  0  0  0
    6.4520   -3.1600   19.7370 C   0  0  0  0  0  0  0  0  0  0  0  0
    8.3740   -2.5770   23.3390 N   0  0  0  0  0  0  0  0  0  0  0  0
    6.3420   -3.3290   22.1930 C   0  0  0  0  0  0  0  0  0  0  0  0
    7.5500   -3.7410   22.9990 C   0  0  0  0  0  0  0  0  0  0  0  0
    9.5370   -2.9770   24.1520 C   0  0  0  0  0  0  0  0  0  0  0  0
    9.2380   -4.0630   25.1400 C   0  0  0  0  0  0  0  0  0  0  0  0
    9.6970   -5.3750   25.1130 C   0  0  0  0  0  0  0  0  0  0  0  0
    9.3800   -6.0990   26.2850 C   0  0  0  0  0  0  0  0  0  0  0  0
    8.4790   -5.3980   27.0770 C   0  0  0  0  0  0  0  0  0  0  0  0
    8.8010   -1.9130   22.1020 C   0  0  0  0  0  0  0  0  0  0  0  0
    7.6200   -1.5180   21.2420 C   0  0  0  0  0  0  0  0  0  0  0  0
    8.2150   -3.8000   26.5090 S   0  0  0  0  0  0  0  0  0  0  0  0
  1  5  1  0
  1  7  1  0
  1 15  1  0
  5  2  1  0
  5  3  2  0
  7  8  1  0
 15 14  1  0
  4 13  1  0
 13 12  2  0
 13 16  1  0
  6  8  1  0
  6  9  1  0
  6 14  1  0
  9 10  1  0
 10 11  2  0
 10 16  1  0
 11 12  1  0
M  END
