
     RDKit          3D

 16 17  0  0  0  0  0  0  0  0999 V2000
    6.9580   -4.4200   20.8730 N   0  0  0  0  0  0  0  0  0  0  0  0
    7.5860   -2.6810   19.2760 C   0  0  0  0  0  0  0  0  0  0  0  0
    5.5680   -3.9430   19.1730 O   0  0  0  0  0  0  0  0  0  0  0  0
    6.6110   -3.7220   19.7790 C   0  0  0  0  0  0  0  0  0  0  0  0
    7.8240   -3.9180   21.8270 N   0  0  0  0  0  0  0  0  0  0  0  0
    6.5410   -2.2300   22.6100 O   0  0  0  0  0  0  0  0  0  0  0  0
    7.6550   -2.7130   22.3970 C   0  0  0  0  0  0  0  0  0  0  0  0
    8.8890   -1.9670   22.7120 C   0  0  0  0  0  0  0  0  0  0  0  0
   10.0500   -1.8780   21.8890 C   0  0  0  0  0  0  0  0  0  0  0  0
   11.0390   -1.0630   22.4870 C   0  0  0  0  0  0  0  0  0  0  0  0
   12.4340   -0.8630   21.9960 C   0  0  0  0  0  0  0  0  0  0  0  0
   13.2860   -0.1540   23.0330 C   0  0  0  0  0  0  0  0  0  0  0  0
   12.5910    1.0370   23.5900 C   0  0  0  0  0  0  0  0  0  0  0  0
   11.3380    0.6550   24.3490 C   0  0  0  0  0  0  0  0  0  0  0  0
   10.6110   -0.4380   23.6180 C   0  0  0  0  0  0  0  0  0  0  0  0
    9.0970   -1.0470   24.1830 S   0  0  0  0  0  0  0  0  0  0  0  0
  1  4  1  0
  1  5  1  0
  4  2  1  0
  4  3  2  0
  5  7  1  0
  7  6  2  0
  7  8  1  0
  8  9  2  0
  8 16  1  0
  9 10  1  0
 16 15  1  0
 10 11  1  0
 10 15  2  0
 11 12  1  0
 15 14  1  0
 12 13  1  0
 13 14  1  0
M  END
