
     RDKit          3D

 16 17  0  0  0  0  0  0  0  0999 V2000
    9.3680    1.1120   21.0320 O   0  0  0  0  0  0  0  0  0  0  0  0
    8.8120    0.3220   21.7270 C   0  0  0  0  0  0  0  0  0  0  0  0
    9.3520   -0.1440   23.0660 C   0  0  0  0  0  0  0  0  0  0  0  0
   10.8670   -0.0690   23.1260 C   0  0  2  0  0  0  0  0  0  0  0  0
   11.5080   -1.0370   22.1340 C   0  0  0  0  0  0  0  0  0  0  0  0
   12.7630   -1.7020   22.6880 C   0  0  0  0  0  0  0  0  0  0  0  0
   13.5520   -0.8480   23.6720 C   0  0  0  0  0  0  0  0  0  0  0  0
   12.7110   -0.1420   24.7310 C   0  0  0  0  0  0  0  0  0  0  0  0
   11.2210   -0.3910   24.5640 C   0  0  0  0  0  0  0  0  0  0  0  0
    7.5600   -0.2470   21.3550 N   0  0  0  0  0  0  0  0  0  0  0  0
    6.9510    0.1800   20.1360 C   0  0  0  0  0  0  0  0  0  0  0  0
    5.7070    0.7820   20.2730 C   0  0  0  0  0  0  0  0  0  0  0  0
    5.0950    1.2170   19.1050 C   0  0  0  0  0  0  0  0  0  0  0  0
    5.7610    1.0320   17.9010 C   0  0  0  0  0  0  0  0  0  0  0  0
    6.9560    0.4630   17.8400 N   0  0  0  0  0  0  0  0  0  0  0  0
    7.5800    0.0350   18.9160 C   0  0  0  0  0  0  0  0  0  0  0  0
  1  2  2  0
  2  3  1  0
  2 10  1  0
  4  3  1  1
 10 11  1  0
  4  5  1  0
  4  9  1  0
  5  6  1  0
  9  8  1  0
  6  7  1  0
  7  8  1  0
 11 12  2  0
 11 16  1  0
 12 13  1  0
 16 15  2  0
 13 14  2  0
 14 15  1  0
M  END
