
     RDKit          3D

 17 18  0  0  0  0  0  0  0  0999 V2000
   21.0280    7.7100   22.4790 N   0  0  0  0  0  0  0  0  0  0  0  0
   21.5630    6.6230   23.1800 C   0  0  0  0  0  0  0  0  0  0  0  0
   22.0930    2.2840   25.9420 O   0  0  0  0  0  0  0  0  0  0  0  0
   21.1800    6.4130   24.5450 C   0  0  0  0  0  0  0  0  0  0  0  0
   23.7590    3.5910   27.0610 N   0  0  0  0  0  0  0  0  0  0  0  0
   24.2600    2.5380   24.8040 O   0  0  0  0  0  0  0  0  0  0  0  0
   21.7250    5.3520   25.2790 C   0  0  0  0  0  0  0  0  0  0  0  0
   24.7970    4.8090   28.6550 N   0  0  0  0  0  0  0  0  0  0  0  0
   22.6480    4.4310   24.7330 C   0  0  0  0  0  0  0  0  0  0  0  0
   23.0180    4.6700   23.3630 C   0  0  0  0  0  0  0  0  0  0  0  0
   22.5040    5.7230   22.5950 C   0  0  0  0  0  0  0  0  0  0  0  0
   24.7300    4.5000   27.2910 C   0  0  0  0  0  0  0  0  0  0  0  0
   25.4770    5.1160   26.2910 C   0  0  0  0  0  0  0  0  0  0  0  0
   26.3250    6.1080   26.7160 C   0  0  0  0  0  0  0  0  0  0  0  0
   26.4180    6.4630   28.0610 C   0  0  0  0  0  0  0  0  0  0  0  0
   25.6340    5.7940   28.9980 C   0  0  0  0  0  0  0  0  0  0  0  0
   23.2090    3.0860   25.5550 S   0  0  1  0  0  0  0  0  0  0  0  0
  1  2  1  0
  2  4  2  0
  2 11  1  0
  4  7  1  0
 11 10  2  0
  3 17  2  0
 17  5  1  1
 17  6  2  0
 17  9  1  0
  7  9  2  0
  5 12  1  0
 12  8  2  0
 12 13  1  0
  9 10  1  0
  8 16  1  0
 16 15  2  0
 13 14  2  0
 14 15  1  0
M  END
