
     RDKit          3D

 14 14  0  0  0  0  0  0  0  0999 V2000
   13.5650   -2.3710   24.3590 C   0  0  0  0  0  0  0  0  0  0  0  0
   13.0750   -1.0750   24.6040 O   0  0  0  0  0  0  0  0  0  0  0  0
   13.1950   -0.1440   23.5630 C   0  0  0  0  0  0  0  0  0  0  0  0
   13.8940   -0.3600   22.6360 O   0  0  0  0  0  0  0  0  0  0  0  0
   12.4350    1.1780   23.6400 C   0  0  0  0  0  0  0  0  0  0  0  0
   11.2150    1.2480   24.2980 C   0  0  0  0  0  0  0  0  0  0  0  0
   10.5380    2.4580   24.3710 C   0  0  0  0  0  0  0  0  0  0  0  0
   11.0880    3.5910   23.7810 C   0  0  0  0  0  0  0  0  0  0  0  0
   12.3080    3.5180   23.1230 C   0  0  0  0  0  0  0  0  0  0  0  0
   12.9790    2.3120   23.0570 C   0  0  0  0  0  0  0  0  0  0  0  0
   10.2230    5.1780   23.8700 S   0  0  2  0  0  0  0  0  0  0  0  0
   11.0970    6.2820   23.4600 O   0  0  0  0  0  0  0  0  0  0  0  0
    9.9310    5.5160   25.2640 O   0  0  0  0  0  0  0  0  0  0  0  0
    8.8030    5.1480   22.9210 N   0  0  0  0  0  0  0  0  0  0  0  0
  1  2  1  0
  2  3  1  0
  3  4  2  0
  3  5  1  0
  5  6  2  0
  5 10  1  0
  6  7  1  0
 10  9  2  0
  7  8  2  0
  8  9  1  0
  8 11  1  0
 11 12  2  0
 11 13  2  0
 11 14  1  6
M  END
