
     RDKit          3D

 20 21  0  0  0  0  0  0  0  0999 V2000
    7.3560   -2.4110   23.7740 N   0  0  0  0  0  0  0  0  0  0  0  0
    5.9400   -5.0910   29.1570 C   0  0  0  0  0  0  0  0  0  0  0  0
    8.5060   -0.9650   25.4250 O   0  0  0  0  0  0  0  0  0  0  0  0
    6.9560   -4.7170   28.1060 C   0  0  0  0  0  0  0  0  0  0  0  0
    7.1010   -3.3130   21.1290 N   0  0  0  0  0  0  0  0  0  0  0  0
    6.0720   -1.3640   25.6030 O   0  0  0  0  0  0  0  0  0  0  0  0
    8.1050   -5.4670   27.9270 C   0  0  0  0  0  0  0  0  0  0  0  0
    5.6930   -4.2680   19.6380 O   0  0  0  0  0  0  0  0  0  0  0  0
    9.0400   -5.1280   26.9640 C   0  0  0  0  0  0  0  0  0  0  0  0
    8.8560   -4.0200   26.1420 C   0  0  0  0  0  0  0  0  0  0  0  0
    9.9100   -3.7120   25.1130 C   0  0  0  0  0  0  0  0  0  0  0  0
    7.6950   -3.2580   26.3300 C   0  0  0  0  0  0  0  0  0  0  0  0
    6.7580   -3.6110   27.2920 C   0  0  0  0  0  0  0  0  0  0  0  0
    7.7750   -1.5240   22.6780 C   0  0  0  0  0  0  0  0  0  0  0  0
    8.1670   -2.3720   21.4950 C   0  0  0  0  0  0  0  0  0  0  0  0
    6.6410   -4.1280   22.2540 C   0  0  0  0  0  0  0  0  0  0  0  0
    6.2070   -3.2410   23.3880 C   0  0  0  0  0  0  0  0  0  0  0  0
    6.5820   -3.4630   19.8890 C   0  0  0  0  0  0  0  0  0  0  0  0
    7.1600   -2.6220   18.7830 C   0  0  0  0  0  0  0  0  0  0  0  0
    7.3870   -1.8460   25.3120 S   0  0  1  0  0  0  0  0  0  0  0  0
  1 14  1  0
  1 17  1  0
  1 20  1  0
 14 15  1  0
 17 16  1  0
 20  3  2  0
 20  6  2  0
 20 12  1  1
  2  4  1  0
  4  7  2  0
  4 13  1  0
  7  9  1  0
 13 12  2  0
  5 15  1  0
  5 16  1  0
  5 18  1  0
 18  8  2  0
 18 19  1  0
  9 10  2  0
 10 11  1  0
 10 12  1  0
M  END
