
     RDKit          3D

 19 20  0  0  0  0  0  0  0  0999 V2000
    5.9610   -5.2150   24.2670 N   0  0  0  0  0  0  0  0  0  0  0  0
    0.8730   -1.0970   25.9060 C   0  0  0  0  0  0  0  0  0  0  0  0
    6.3940   -4.7240   26.6330 O   0  0  0  0  0  0  0  0  0  0  0  0
    1.9770   -2.1120   25.8740 C   0  0  0  0  0  0  0  0  0  0  0  0
    6.7600   -5.0780   21.5810 N   0  0  0  0  0  0  0  0  0  0  0  0
    4.7460   -6.4610   26.0160 O   0  0  0  0  0  0  0  0  0  0  0  0
    3.2040   -1.8410   26.4570 C   0  0  0  0  0  0  0  0  0  0  0  0
    5.5470   -5.1320   19.6790 O   0  0  0  0  0  0  0  0  0  0  0  0
    4.2330   -2.7630   26.4380 C   0  0  0  0  0  0  0  0  0  0  0  0
    4.0360   -3.9860   25.8150 C   0  0  0  0  0  0  0  0  0  0  0  0
    2.8150   -4.2830   25.2290 C   0  0  0  0  0  0  0  0  0  0  0  0
    1.8020   -3.3440   25.2630 C   0  0  0  0  0  0  0  0  0  0  0  0
    5.1780   -5.8970   23.2260 C   0  0  0  0  0  0  0  0  0  0  0  0
    6.1180   -6.2790   22.1150 C   0  0  0  0  0  0  0  0  0  0  0  0
    7.4910   -4.3260   22.6060 C   0  0  0  0  0  0  0  0  0  0  0  0
    6.5780   -3.9810   23.7540 C   0  0  0  0  0  0  0  0  0  0  0  0
    6.3830   -4.5810   20.3830 C   0  0  0  0  0  0  0  0  0  0  0  0
    7.0080   -3.2890   19.9320 C   0  0  0  0  0  0  0  0  0  0  0  0
    5.3390   -5.1820   25.7840 S   0  0  2  0  0  0  0  0  0  0  0  0
  1 13  1  0
  1 16  1  0
  1 19  1  0
 13 14  1  0
 16 15  1  0
 19  3  2  0
 19  6  2  0
 19 10  1  6
  2  4  1  0
  4  7  2  0
  4 12  1  0
  7  9  1  0
 12 11  2  0
  5 14  1  0
  5 15  1  0
  5 17  1  0
 17  8  2  0
 17 18  1  0
  9 10  2  0
 10 11  1  0
M  END
