
     RDKit          3D

 17 18  0  0  0  0  0  0  0  0999 V2000
   22.4190  -22.5020   19.9100 N   0  0  0  0  0  0  0  0  0  0  0  0
   24.8410  -19.8950   20.0500 C   0  0  0  0  0  0  0  0  0  0  0  0
   23.7430  -20.7260   20.3280 O   0  0  0  0  0  0  0  0  0  0  0  0
   23.5170  -21.7970   19.4890 C   0  0  0  0  0  0  0  0  0  0  0  0
   21.0670  -24.9800   17.5470 N   0  0  0  0  0  0  0  0  0  0  0  0
   24.1990  -22.0450   18.5160 O   0  0  0  0  0  0  0  0  0  0  0  0
   21.9760  -23.6370   19.2590 C   0  0  0  0  0  0  0  0  0  0  0  0
   21.2410  -25.8290   18.5290 C   0  0  0  0  0  0  0  0  0  0  0  0
   20.8570  -27.2520   18.4410 C   0  0  0  0  0  0  0  0  0  0  0  0
   21.4810  -23.6990   17.9480 C   0  0  0  0  0  0  0  0  0  0  0  0
   21.2900  -22.6050   16.9880 C   0  0  0  0  0  0  0  0  0  0  0  0
   20.7360  -21.3910   17.4130 C   0  0  0  0  0  0  0  0  0  0  0  0
   20.4730  -20.3770   16.4850 C   0  0  0  0  0  0  0  0  0  0  0  0
   20.7660  -20.5740   15.1340 C   0  0  0  0  0  0  0  0  0  0  0  0
   21.3290  -21.7860   14.7100 C   0  0  0  0  0  0  0  0  0  0  0  0
   21.5960  -22.8040   15.6340 C   0  0  0  0  0  0  0  0  0  0  0  0
   21.9270  -25.1770   20.0040 S   0  0  0  0  0  0  0  0  0  0  0  0
  1  4  1  0
  1  7  1  0
  4  3  1  0
  4  6  2  0
  7 10  2  0
  7 17  1  0
  2  3  1  0
  5  8  2  0
  5 10  1  0
  8  9  1  0
  8 17  1  0
 10 11  1  0
 11 12  2  0
 11 16  1  0
 12 13  1  0
 16 15  2  0
 13 14  2  0
 14 15  1  0
M  END
