
     RDKit          3D

 15 16  0  0  0  0  0  0  0  0999 V2000
   27.9950   21.7150   -2.4940 N   0  0  0  0  0  0  0  0  0  0  0  0
   27.0650   23.5110   -4.0550 C   0  0  0  0  0  0  0  0  0  0  0  0
   28.1580   22.4430   -3.8420 C   0  0  1  0  0  0  0  0  0  0  0  0
   27.7770   19.5920   -3.6400 N   0  0  0  0  0  0  0  0  0  0  0  0
   29.5150   23.1290   -4.0630 C   0  0  0  0  0  0  0  0  0  0  0  0
   27.7940   17.3660   -2.5930 N   0  0  0  0  0  0  0  0  0  0  0  0
   28.5020   22.4190   -1.2910 C   0  0  0  0  0  0  0  0  0  0  0  0
   27.9490   17.4810   -0.1050 N   0  0  0  0  0  0  0  0  0  0  0  0
   27.8840   20.2660   -2.4440 C   0  0  0  0  0  0  0  0  0  0  0  0
   28.0150   18.4560    0.8600 N   0  0  0  0  0  0  0  0  0  0  0  0
   27.7410   18.2170   -3.6370 C   0  0  0  0  0  0  0  0  0  0  0  0
   27.8850   18.0380   -1.3890 C   0  0  0  0  0  0  0  0  0  0  0  0
   27.9750   16.0460    0.2180 C   0  0  0  0  0  0  0  0  0  0  0  0
   28.0050   19.6510    0.2220 C   0  0  0  0  0  0  0  0  0  0  0  0
   27.9270   19.4780   -1.2230 C   0  0  0  0  0  0  0  0  0  0  0  0
  1  3  1  0
  1  7  1  0
  1  9  1  0
  3  2  1  1
  3  5  1  0
  9  4  2  0
  9 15  1  0
  4 11  1  0
 11  6  2  0
  6 12  1  0
 12  8  1  0
 12 15  2  0
  8 10  1  0
  8 13  1  0
 10 14  2  0
 15 14  1  0
M  END
