
     RDKit          3D

 13 14  0  0  0  0  0  0  0  0999 V2000
   10.1460    3.1660   22.2570 N   0  0  0  0  0  0  0  0  0  0  0  0
    9.3600    1.9240   22.2570 C   0  0  0  0  0  0  0  0  0  0  0  0
    9.0330    1.4150   21.2050 O   0  0  0  0  0  0  0  0  0  0  0  0
    8.9730    1.2720   23.6270 C   0  0  1  0  0  0  0  0  0  0  0  0
    7.6480    1.1740   23.7750 C   0  0  0  0  0  0  0  0  0  0  0  0
    7.2650   -0.3390   23.3690 C   0  0  0  0  0  0  0  0  0  0  0  0
    8.6370   -1.0300   23.0410 C   0  0  0  0  0  0  0  0  0  0  0  0
    9.5540   -0.2880   23.7200 C   0  0  1  0  0  0  0  0  0  0  0  0
   10.9830   -0.3720   23.1290 C   0  0  0  0  0  0  0  0  0  0  0  0
   11.9840    0.5570   23.5040 C   0  0  0  0  0  0  0  0  0  0  0  0
   13.2420    0.3470   22.8880 C   0  0  0  0  0  0  0  0  0  0  0  0
   13.0580   -1.0540   21.8550 S   0  0  0  0  0  0  0  0  0  0  0  0
   11.3680   -1.3720   22.2140 C   0  0  0  0  0  0  0  0  0  0  0  0
  1  2  1  0
  2  3  2  0
  4  2  1  6
  4  5  1  0
  4  8  1  0
  5  6  1  0
  8  7  1  0
  8  9  1  6
  6  7  1  0
  9 10  1  0
  9 13  2  0
 10 11  2  0
 13 12  1  0
 11 12  1  0
M  END
