
     RDKit          3D

 18 19  0  0  0  0  0  0  0  0999 V2000
    8.3830    0.7270   24.9470 N   0  0  0  0  0  0  0  0  0  0  0  0
    7.6380    1.4790   24.0370 C   0  0  0  0  0  0  0  0  0  0  0  0
    8.1090    2.4760   23.4650 O   0  0  0  0  0  0  0  0  0  0  0  0
    9.7650    1.0660   25.2760 C   0  0  0  0  0  0  0  0  0  0  0  0
   13.9290   -1.7300   20.6230 N   0  0  0  0  0  0  0  0  0  0  0  0
    3.4110    1.0800   23.6670 O   0  0  0  0  0  0  0  0  0  0  0  0
   10.6910    0.4410   24.2710 C   0  0  0  0  0  0  0  0  0  0  0  0
    6.2720    0.9750   23.8240 N   0  0  0  0  0  0  0  0  0  0  0  0
   11.8530    1.1040   23.8870 C   0  0  0  0  0  0  0  0  0  0  0  0
   12.7070    0.5230   22.9520 C   0  0  0  0  0  0  0  0  0  0  0  0
   12.3780   -0.7170   22.3960 C   0  0  0  0  0  0  0  0  0  0  0  0
   13.2220   -1.2920   21.4190 C   0  0  0  0  0  0  0  0  0  0  0  0
   11.2200   -1.3880   22.7800 C   0  0  0  0  0  0  0  0  0  0  0  0
   10.3780   -0.8080   23.7200 C   0  0  0  0  0  0  0  0  0  0  0  0
    5.4120    0.8650   25.0480 C   0  0  0  0  0  0  0  0  0  0  0  0
    3.9830    0.3600   24.7440 C   0  0  0  0  0  0  0  0  0  0  0  0
    4.1600    1.0430   22.4690 C   0  0  0  0  0  0  0  0  0  0  0  0
    5.5520    1.6570   22.7150 C   0  0  0  0  0  0  0  0  0  0  0  0
  1  2  1  0
  1  4  1  0
  2  3  2  0
  2  8  1  0
  4  7  1  0
  8 15  1  0
  8 18  1  0
  7  9  2  0
  7 14  1  0
  5 12  3  0
 12 11  1  0
  6 16  1  0
  6 17  1  0
 16 15  1  0
 17 18  1  0
  9 10  1  0
 14 13  2  0
 10 11  2  0
 11 13  1  0
M  END
