
     RDKit          3D

 15 16  0  0  0  0  0  0  0  0999 V2000
   11.0210  -25.8180    3.5450 C   0  0  0  0  0  0  0  0  0  0  0  0
   12.1500  -25.0230    3.6280 C   0  0  0  0  0  0  0  0  0  0  0  0
   12.4370  -24.1080    2.6180 C   0  0  0  0  0  0  0  0  0  0  0  0
   11.5900  -23.9850    1.5400 C   0  0  0  0  0  0  0  0  0  0  0  0
   10.4490  -24.7850    1.4640 C   0  0  0  0  0  0  0  0  0  0  0  0
    9.4800  -24.6830    0.2430 C   0  0  0  0  0  0  0  0  0  0  0  0
    9.0000  -23.3060    0.0060 N   0  0  0  0  0  0  0  0  0  0  0  0
    8.0810  -23.3210   -1.0670 C   0  0  0  0  0  0  0  0  0  0  0  0
    7.2570  -22.0270   -1.1150 C   0  0  0  0  0  0  0  0  0  0  0  0
    7.6050  -20.8380   -1.7510 C   0  0  0  0  0  0  0  0  0  0  0  0
    6.5690  -19.9380   -1.5420 C   0  0  0  0  0  0  0  0  0  0  0  0
    5.5810  -20.6120   -0.7670 C   0  0  0  0  0  0  0  0  0  0  0  0
    6.0210  -21.8450   -0.5430 O   0  0  0  0  0  0  0  0  0  0  0  0
   10.1680  -25.7010    2.4640 C   0  0  0  0  0  0  0  0  0  0  0  0
   10.7250  -26.7100    4.5130 F   0  0  0  0  0  0  0  0  0  0  0  0
  1  2  2  0
  1 14  1  0
  1 15  1  0
  2  3  1  0
 14  5  2  0
  3  4  2  0
  4  5  1  0
  5  6  1  0
  6  7  1  0
  7  8  1  0
  8  9  1  0
  9 10  2  0
  9 13  1  0
 10 11  1  0
 13 12  1  0
 11 12  2  0
M  END
