
     RDKit          3D

 17 18  0  0  0  0  0  0  0  0999 V2000
    5.6740   -3.9470   20.0760 O   0  0  0  0  0  0  0  0  0  0  0  0
    6.6070   -4.1970   20.8300 C   0  0  0  0  0  0  0  0  0  0  0  0
    8.0270   -3.8960   20.4160 C   0  0  0  0  0  0  0  0  0  0  0  0
    6.4050   -4.7670   22.0640 N   0  0  0  0  0  0  0  0  0  0  0  0
    7.4470   -4.8370   23.0560 C   0  0  0  0  0  0  0  0  0  0  0  0
    8.4470   -5.8040   22.9780 C   0  0  0  0  0  0  0  0  0  0  0  0
    9.4190   -5.8770   23.9630 C   0  0  0  0  0  0  0  0  0  0  0  0
    9.3920   -5.0160   25.0380 C   0  0  0  0  0  0  0  0  0  0  0  0
    8.3930   -4.0760   25.1360 C   0  0  0  0  0  0  0  0  0  0  0  0
    7.4210   -3.9800   24.1540 C   0  0  0  0  0  0  0  0  0  0  0  0
    5.0920   -5.3100   22.3970 C   0  0  1  0  0  0  0  0  0  0  0  0
    5.0190   -6.7960   22.1000 C   0  0  0  0  0  0  0  0  0  0  0  0
    3.9980   -7.3730   22.7080 C   0  0  0  0  0  0  0  0  0  0  0  0
    3.7110   -6.6010   24.2480 S   0  0  2  0  0  0  0  0  0  0  0  0
    4.2820   -7.3850   25.3110 O   0  0  0  0  0  0  0  0  0  0  0  0
    2.3290   -6.2240   24.3710 O   0  0  0  0  0  0  0  0  0  0  0  0
    4.7280   -5.1840   23.8890 C   0  0  0  0  0  0  0  0  0  0  0  0
  1  2  2  0
  2  3  1  0
  2  4  1  0
  4  5  1  0
 11  4  1  1
  5  6  2  0
  5 10  1  0
 11 12  1  0
 11 17  1  0
  6  7  1  0
 10  9  2  0
  7  8  2  0
  8  9  1  0
 12 13  2  0
 14 17  1  6
 13 14  1  0
 14 15  2  0
 14 16  2  0
M  END
