
     RDKit          3D

 20 22  0  0  0  0  0  0  0  0999 V2000
    6.7910   -2.1530   20.8330 N   0  0  0  0  0  0  0  0  0  0  0  0
    8.2610   -3.0110   19.1790 C   0  0  0  0  0  0  0  0  0  0  0  0
    5.9010   -3.3730   19.1380 O   0  0  0  0  0  0  0  0  0  0  0  0
    6.8670   -2.8630   19.6950 C   0  0  0  0  0  0  0  0  0  0  0  0
    8.7030   -2.0700   22.9870 N   0  0  0  0  0  0  0  0  0  0  0  0
    7.7420   -1.0430   20.9630 C   0  0  0  0  0  0  0  0  0  0  0  0
    9.0060   -1.4290   21.7050 C   0  0  0  0  0  0  0  0  0  0  0  0
    9.9350   -2.4050   23.7110 C   0  0  0  0  0  0  0  0  0  0  0  0
   11.0170   -1.3710   23.5110 C   0  0  0  0  0  0  0  0  0  0  0  0
   12.0400   -1.5820   22.6220 C   0  0  0  0  0  0  0  0  0  0  0  0
   13.0410   -0.6210   22.4030 C   0  0  0  0  0  0  0  0  0  0  0  0
   12.9980    0.5650   23.0590 C   0  0  0  0  0  0  0  0  0  0  0  0
   11.9520    0.8490   23.9680 C   0  0  0  0  0  0  0  0  0  0  0  0
   11.8880    2.0840   24.6510 C   0  0  0  0  0  0  0  0  0  0  0  0
   10.8730    2.3510   25.5120 C   0  0  0  0  0  0  0  0  0  0  0  0
    9.8830    1.3910   25.7650 C   0  0  0  0  0  0  0  0  0  0  0  0
    9.9130    0.1900   25.1230 C   0  0  0  0  0  0  0  0  0  0  0  0
   10.9440   -0.1270   24.2000 C   0  0  0  0  0  0  0  0  0  0  0  0
    7.8880   -3.2590   22.7520 C   0  0  0  0  0  0  0  0  0  0  0  0
    6.5820   -2.8950   22.0780 C   0  0  0  0  0  0  0  0  0  0  0  0
  1  4  1  0
  1  6  1  0
  1 20  1  0
  4  2  1  0
  4  3  2  0
  6  7  1  0
 20 19  1  0
  5  7  1  0
  5  8  1  0
  5 19  1  0
  8  9  1  0
  9 10  2  0
  9 18  1  0
 10 11  1  0
 18 17  2  0
 18 13  1  0
 11 12  2  0
 12 13  1  0
 13 14  2  0
 14 15  1  0
 15 16  2  0
 16 17  1  0
M  END
