
     RDKit          3D

 14 15  0  0  0  0  0  0  0  0999 V2000
   14.4830  -25.9390    4.4800 N   0  0  0  0  0  0  0  0  0  0  0  0
   15.8950  -25.5930    7.2110 C   0  0  0  0  0  0  0  0  0  0  0  0
   15.0990  -27.8720    8.0020 O   0  0  0  0  0  0  0  0  0  0  0  0
   16.0500  -27.5790    5.6250 C   0  0  0  0  0  0  0  0  0  0  0  0
   13.7420  -28.1120    4.6680 N   0  0  0  0  0  0  0  0  0  0  0  0
   17.4970  -27.4510    7.7080 O   0  0  0  0  0  0  0  0  0  0  0  0
   14.7770  -27.1920    4.9280 C   0  0  0  0  0  0  0  0  0  0  0  0
   13.1940  -26.0440    3.9210 C   0  0  0  0  0  0  0  0  0  0  0  0
   12.3640  -25.0430    3.3680 C   0  0  0  0  0  0  0  0  0  0  0  0
   11.1020  -25.4190    2.9620 C   0  0  0  0  0  0  0  0  0  0  0  0
   10.6490  -26.7590    3.0750 C   0  0  0  0  0  0  0  0  0  0  0  0
   11.4420  -27.7510    3.6030 C   0  0  0  0  0  0  0  0  0  0  0  0
   12.7270  -27.3820    4.0330 C   0  0  0  0  0  0  0  0  0  0  0  0
   16.1490  -27.2290    7.3080 S   0  0  1  0  0  0  0  0  0  0  0  0
  1  7  2  0
  1  8  1  0
  7  4  1  0
  7  5  1  0
  8  9  2  0
  8 13  1  0
 14  2  1  6
 14  3  2  0
 14  4  1  0
 14  6  2  0
  5 13  1  0
 13 12  2  0
  9 10  1  0
 10 11  2  0
 11 12  1  0
M  END
