
     RDKit          3D

 15 16  0  0  0  0  0  0  0  0999 V2000
    7.4230  -23.3420   -1.2310 C   0  0  0  0  0  0  0  0  0  0  0  0
    7.1010  -21.8670   -0.9200 C   0  0  1  0  0  0  0  0  0  0  0  0
    7.6900  -20.9650   -2.0030 C   0  0  0  0  0  0  0  0  0  0  0  0
    7.1790  -19.6170   -2.0830 N   0  0  0  0  0  0  0  0  0  0  0  0
    7.6810  -18.6450   -3.0340 C   0  0  0  0  0  0  0  0  0  0  0  0
    7.2240  -17.5500   -3.0630 O   0  0  0  0  0  0  0  0  0  0  0  0
    8.7970  -19.0050   -4.0170 C   0  0  0  0  0  0  0  0  0  0  0  0
    9.3060  -17.7850   -4.6150 N   0  0  0  0  0  0  0  0  0  0  0  0
   10.0130  -16.8650   -3.9830 C   0  0  0  0  0  0  0  0  0  0  0  0
   10.2970  -15.8590   -4.8850 C   0  0  0  0  0  0  0  0  0  0  0  0
    9.7160  -16.2290   -6.0880 C   0  0  0  0  0  0  0  0  0  0  0  0
    9.1200  -17.3940   -5.9090 N   0  0  0  0  0  0  0  0  0  0  0  0
    6.1330  -19.3080   -1.1400 C   0  0  0  0  0  0  0  0  0  0  0  0
    5.1780  -20.4460   -0.7830 C   0  0  0  0  0  0  0  0  0  0  0  0
    5.7050  -21.7560   -0.7950 O   0  0  0  0  0  0  0  0  0  0  0  0
  2  1  1  6
  2  3  1  0
  2 15  1  0
  3  4  1  0
 15 14  1  0
  4  5  1  0
  4 13  1  0
  5  6  2  0
  5  7  1  0
 13 14  1  0
  7  8  1  0
  8 12  1  0
  8  9  1  0
  9 10  2  0
 12 11  2  0
 10 11  1  0
M  END
