
     RDKit          3D

 18 19  0  0  0  0  0  0  0  0999 V2000
    8.5770   -1.8690   23.1510 N   0  0  0  0  0  0  0  0  0  0  0  0
   12.5100   -1.9030   22.2670 C   0  0  0  0  0  0  0  0  0  0  0  0
    5.7720   -4.3610   19.6560 O   0  0  0  0  0  0  0  0  0  0  0  0
   11.9480   -0.8100   23.1400 C   0  0  0  0  0  0  0  0  0  0  0  0
    6.5120   -2.8120   21.1030 N   0  0  0  0  0  0  0  0  0  0  0  0
   12.6660    0.3670   23.2740 C   0  0  0  0  0  0  0  0  0  0  0  0
   12.2100    1.4030   24.0640 C   0  0  0  0  0  0  0  0  0  0  0  0
   11.0170    1.2770   24.7360 C   0  0  0  0  0  0  0  0  0  0  0  0
   10.2880    0.1110   24.6220 C   0  0  0  0  0  0  0  0  0  0  0  0
   10.7410   -0.9540   23.8450 C   0  0  0  0  0  0  0  0  0  0  0  0
    9.8860   -2.1940   23.7310 C   0  0  0  0  0  0  0  0  0  0  0  0
    8.6960   -1.3980   21.7620 C   0  0  0  0  0  0  0  0  0  0  0  0
    7.5180   -0.5720   21.3230 C   0  0  0  0  0  0  0  0  0  0  0  0
    6.2540   -1.3900   21.3630 C   0  0  0  0  0  0  0  0  0  0  0  0
    6.9910   -3.6490   22.2110 C   0  0  0  0  0  0  0  0  0  0  0  0
    7.5520   -2.8970   23.4160 C   0  0  0  0  0  0  0  0  0  0  0  0
    6.3860   -3.3180   19.8640 C   0  0  0  0  0  0  0  0  0  0  0  0
    7.0790   -2.6460   18.6880 C   0  0  0  0  0  0  0  0  0  0  0  0
  1 11  1  0
  1 12  1  0
  1 16  1  0
 11 10  1  0
 12 13  1  0
 16 15  1  0
  2  4  1  0
  4  6  2  0
  4 10  1  0
  3 17  2  0
 17  5  1  0
 17 18  1  0
  6  7  1  0
 10  9  2  0
  5 14  1  0
  5 15  1  0
 14 13  1  0
  7  8  2  0
  8  9  1  0
M  END
