
     RDKit          3D

 18 20  0  0  0  0  0  0  0  0999 V2000
   22.6240   17.8100    2.8820 O   0  0  0  0  0  0  0  0  0  0  0  0
   21.9310   18.3150    3.9870 C   0  0  0  0  0  0  0  0  0  0  0  0
   21.0620   19.3880    3.8470 C   0  0  0  0  0  0  0  0  0  0  0  0
   20.3910   19.8720    4.9590 C   0  0  0  0  0  0  0  0  0  0  0  0
   20.5690   19.2830    6.2060 C   0  0  0  0  0  0  0  0  0  0  0  0
   21.4350   18.2050    6.3470 C   0  0  0  0  0  0  0  0  0  0  0  0
   22.1100   17.7240    5.2300 C   0  0  0  0  0  0  0  0  0  0  0  0
   23.0740   16.5530    5.3380 C   0  0  0  0  0  0  0  0  0  0  0  0
   22.6550   15.4600    4.4800 N   0  0  0  0  0  0  0  0  0  0  0  0
   23.5640   14.3470    4.2780 C   0  0  0  0  0  0  0  0  0  0  0  0
   24.7020   14.1730    4.9490 N   0  0  0  0  0  0  0  0  0  0  0  0
   25.3030   13.0330    4.5070 C   0  0  0  0  0  0  0  0  0  0  0  0
   26.5200   12.3750    4.8650 C   0  0  0  0  0  0  0  0  0  0  0  0
   26.8810   11.1900    4.2270 C   0  0  0  0  0  0  0  0  0  0  0  0
   26.0590   10.6500    3.2330 C   0  0  0  0  0  0  0  0  0  0  0  0
   24.8770   11.2950    2.8840 C   0  0  0  0  0  0  0  0  0  0  0  0
   24.5000   12.5030    3.5420 C   0  0  0  0  0  0  0  0  0  0  0  0
   23.4330   13.3340    3.4210 N   0  0  0  0  0  0  0  0  0  0  0  0
  1  2  1  0
  2  3  2  0
  2  7  1  0
  3  4  1  0
  7  6  2  0
  7  8  1  0
  4  5  2  0
  5  6  1  0
  8  9  1  0
  9 10  1  0
 10 11  2  0
 10 18  1  0
 11 12  1  0
 18 17  1  0
 12 13  2  0
 12 17  1  0
 13 14  1  0
 17 16  2  0
 14 15  2  0
 15 16  1  0
M  END
