
     RDKit          3D

 18 19  0  0  0  0  0  0  0  0999 V2000
    6.4140   -5.1520   21.7450 N   0  0  0  0  0  0  0  0  0  0  0  0
    7.6180   -3.5630   20.3120 C   0  0  0  0  0  0  0  0  0  0  0  0
    5.6030   -4.6900   19.7060 O   0  0  0  0  0  0  0  0  0  0  0  0
    0.7590   -1.2830   25.6160 Cl  0  0  0  0  0  0  0  0  0  0  0  0
    6.4730   -4.5280   20.5530 C   0  0  0  0  0  0  0  0  0  0  0  0
    5.5210   -5.3320   24.3900 N   0  0  0  0  0  0  0  0  0  0  0  0
    3.9950   -6.3540   26.0310 O   0  0  0  0  0  0  0  0  0  0  0  0
    2.2810   -3.8280   25.7700 S   0  0  0  0  0  0  0  0  0  0  0  0
    5.3610   -6.1000   22.1010 C   0  0  0  0  0  0  0  0  0  0  0  0
    6.0250   -5.1430   26.7820 O   0  0  0  0  0  0  0  0  0  0  0  0
    4.5860   -5.5750   23.2780 C   0  0  0  0  0  0  0  0  0  0  0  0
    6.5890   -4.3800   24.0410 C   0  0  0  0  0  0  0  0  0  0  0  0
    7.3410   -4.9220   22.8550 C   0  0  0  0  0  0  0  0  0  0  0  0
    3.9770   -3.8020   26.0150 C   0  0  0  0  0  0  0  0  0  0  0  0
    4.4740   -2.5460   26.2720 C   0  0  0  0  0  0  0  0  0  0  0  0
    3.4990   -1.5480   26.0180 C   0  0  0  0  0  0  0  0  0  0  0  0
    2.2450   -2.1130   25.8130 C   0  0  0  0  0  0  0  0  0  0  0  0
    4.9080   -5.2610   25.8980 S   0  0  1  0  0  0  0  0  0  0  0  0
  1  5  1  0
  1  9  1  0
  1 13  1  0
  5  2  1  0
  5  3  2  0
  9 11  1  0
 13 12  1  0
  4 17  1  0
 17 16  2  0
 17  8  1  0
  6 18  1  0
  6 11  1  0
  6 12  1  0
 18  7  2  0
 18 10  2  0
 18 14  1  6
  8 14  1  0
 14 15  2  0
 15 16  1  0
M  END
