
     RDKit          3D

 15 16  0  0  0  0  0  0  0  0999 V2000
    7.1240   -3.7790   21.3000 N   0  0  0  0  0  0  0  0  0  0  0  0
    7.6910   -4.6610   27.6530 C   0  0  0  0  0  0  0  0  0  0  0  0
    7.5330   -4.7400   26.2360 O   0  0  0  0  0  0  0  0  0  0  0  0
    6.4290   -5.3600   25.7390 C   0  0  0  0  0  0  0  0  0  0  0  0
    7.0830   -4.5400   23.5000 N   0  0  0  0  0  0  0  0  0  0  0  0
    5.6070   -4.2120   19.6760 O   0  0  0  0  0  0  0  0  0  0  0  0
    5.5120   -6.0890   26.4940 C   0  0  0  0  0  0  0  0  0  0  0  0
    4.4130   -6.6870   25.8710 C   0  0  0  0  0  0  0  0  0  0  0  0
    4.2110   -6.5740   24.5120 C   0  0  0  0  0  0  0  0  0  0  0  0
    5.1360   -5.8460   23.7730 C   0  0  0  0  0  0  0  0  0  0  0  0
    6.5630   -4.5390   22.3050 C   0  0  0  0  0  0  0  0  0  0  0  0
    6.6280   -3.6450   20.0310 C   0  0  0  0  0  0  0  0  0  0  0  0
    7.4330   -2.7540   19.1160 C   0  0  0  0  0  0  0  0  0  0  0  0
    6.2510   -5.2320   24.3640 C   0  0  0  0  0  0  0  0  0  0  0  0
    5.1470   -5.5330   22.0580 S   0  0  0  0  0  0  0  0  0  0  0  0
  1 11  1  0
  1 12  1  0
 11  5  2  0
 11 15  1  0
 12  6  2  0
 12 13  1  0
  2  3  1  0
  3  4  1  0
  4  7  2  0
  4 14  1  0
  7  8  1  0
 14 10  2  0
 14  5  1  0
  8  9  2  0
  9 10  1  0
 10 15  1  0
M  END
