
     RDKit          3D

 16 17  0  0  0  0  0  0  0  0999 V2000
    6.9100   -2.8960   21.0440 N   0  0  0  0  0  0  0  0  0  0  0  0
    7.1020   -2.5290   18.6070 C   0  0  0  0  0  0  0  0  0  0  0  0
    5.7130   -4.1580   19.6320 O   0  0  0  0  0  0  0  0  0  0  0  0
    6.5200   -3.2520   19.8030 C   0  0  0  0  0  0  0  0  0  0  0  0
    8.2040   -2.7470   23.5560 N   0  0  0  0  0  0  0  0  0  0  0  0
    8.2380   -1.3100   25.3140 O   0  0  0  0  0  0  0  0  0  0  0  0
    6.4820   -3.7120   22.1810 C   0  0  0  0  0  0  0  0  0  0  0  0
    7.6500   -4.0140   23.0880 C   0  0  0  0  0  0  0  0  0  0  0  0
    8.7370   -1.9570   22.4460 C   0  0  0  0  0  0  0  0  0  0  0  0
    7.6500   -1.6830   21.4210 C   0  0  0  0  0  0  0  0  0  0  0  0
    8.3440   -2.4520   24.8730 C   0  0  0  0  0  0  0  0  0  0  0  0
    8.6350   -3.5400   25.7480 C   0  0  0  0  0  0  0  0  0  0  0  0
    9.5320   -4.5600   25.5010 C   0  0  0  0  0  0  0  0  0  0  0  0
    9.4020   -5.5890   26.4550 C   0  0  0  0  0  0  0  0  0  0  0  0
    8.6250   -5.2450   27.5040 C   0  0  0  0  0  0  0  0  0  0  0  0
    7.8620   -3.7470   27.2730 S   0  0  0  0  0  0  0  0  0  0  0  0
  1  4  1  0
  1  7  1  0
  1 10  1  0
  4  2  1  0
  4  3  2  0
  7  8  1  0
 10  9  1  0
  5  8  1  0
  5  9  1  0
  5 11  1  0
 11  6  1  0
 11 12  1  0
 12 13  2  0
 12 16  1  0
 13 14  1  0
 16 15  1  0
 14 15  2  0
M  END
