
     RDKit          3D

 15 16  0  0  0  0  0  0  0  0999 V2000
    9.8660   -0.3790   24.9390 C   0  0  0  0  0  0  0  0  0  0  0  0
   11.0170   -0.3290   24.0700 N   0  0  0  0  0  0  0  0  0  0  0  0
   11.6560   -1.5590   23.7030 C   0  0  0  0  0  0  0  0  0  0  0  0
   12.6670   -1.4520   22.6010 C   0  0  0  0  0  0  0  0  0  0  0  0
   13.6170   -0.2970   22.8440 C   0  0  0  0  0  0  0  0  0  0  0  0
   12.8380    1.0340   23.0730 C   0  0  0  0  0  0  0  0  0  0  0  0
   13.3890    2.2650   22.6670 C   0  0  0  0  0  0  0  0  0  0  0  0
   12.6770    3.4500   22.8670 C   0  0  0  0  0  0  0  0  0  0  0  0
   11.4060    3.3850   23.4720 C   0  0  0  0  0  0  0  0  0  0  0  0
   10.8560    2.1710   23.8690 C   0  0  0  0  0  0  0  0  0  0  0  0
   11.5730    0.9770   23.6640 C   0  0  0  0  0  0  0  0  0  0  0  0
   10.4530    4.8850   23.7650 S   0  0  2  0  0  0  0  0  0  0  0  0
    9.9400    4.8090   25.1270 O   0  0  0  0  0  0  0  0  0  0  0  0
    9.2110    4.9180   22.9890 O   0  0  0  0  0  0  0  0  0  0  0  0
   11.4210    6.2590   23.4950 N   0  0  0  0  0  0  0  0  0  0  0  0
  1  2  1  0
  2  3  1  0
  2 11  1  0
  3  4  1  0
 11  6  2  0
 11 10  1  0
  4  5  1  0
  5  6  1  0
  6  7  1  0
  7  8  2  0
  8  9  1  0
  9 10  2  0
  9 12  1  0
 12 13  2  0
 12 14  2  0
 12 15  1  1
M  END
