
     RDKit          3D

 17 18  0  0  0  0  0  0  0  0999 V2000
   25.8670    6.2670   13.9170 N   0  0  0  0  0  0  0  0  0  0  0  0
   25.8460    4.8910   13.4590 C   0  0  0  0  0  0  0  0  0  0  0  0
   26.1830    4.0380   14.2170 O   0  0  0  0  0  0  0  0  0  0  0  0
   25.4270    4.5120   12.0330 C   0  0  0  0  0  0  0  0  0  0  0  0
   25.1740    5.4760   11.0630 C   0  0  0  0  0  0  0  0  0  0  0  0
   24.8130    5.1070    9.7830 C   0  0  0  0  0  0  0  0  0  0  0  0
   24.6990    3.7710    9.4610 C   0  0  0  0  0  0  0  0  0  0  0  0
   24.3300    3.3990    8.1190 N   0  0  0  0  0  0  0  0  0  0  0  0
   23.0860    2.7120    7.8360 C   0  0  0  0  0  0  0  0  0  0  0  0
   22.3330    2.4380    8.7140 O   0  0  0  0  0  0  0  0  0  0  0  0
   22.7820    2.3420    6.3700 C   0  0  2  0  0  0  0  0  0  0  0  0
   23.1910    1.1590    6.1350 C   0  0  0  0  0  0  0  0  0  0  0  0
   23.8520    1.2100    4.7720 C   0  0  0  0  0  0  0  0  0  0  0  0
   24.5250    2.5690    4.8570 C   0  0  0  0  0  0  0  0  0  0  0  0
   23.6200    3.3030    5.3730 O   0  0  0  0  0  0  0  0  0  0  0  0
   24.9590    2.8020   10.4110 C   0  0  0  0  0  0  0  0  0  0  0  0
   25.3210    3.1700   11.6970 C   0  0  0  0  0  0  0  0  0  0  0  0
  1  2  1  0
  2  3  2  0
  2  4  1  0
  4  5  2  0
  4 17  1  0
  5  6  1  0
 17 16  2  0
  6  7  2  0
  7  8  1  0
  7 16  1  0
  8  9  1  0
  9 10  2  0
 11  9  1  1
 11 12  1  0
 11 15  1  0
 12 13  1  0
 15 14  1  0
 13 14  1  0
M  END
