
     RDKit          3D

 15 15  0  0  0  0  0  0  0  0999 V2000
    5.5330  -30.1050   10.8920 C   0  0  0  0  0  0  0  0  0  0  0  0
    5.0030  -29.9160    9.4690 C   0  0  0  0  0  0  0  0  0  0  0  0
    4.6580  -30.8790    8.8740 O   0  0  0  0  0  0  0  0  0  0  0  0
    4.8770  -28.6070    8.8320 N   0  0  0  0  0  0  0  0  0  0  0  0
    5.3010  -27.3870    9.5060 C   0  0  0  0  0  0  0  0  0  0  0  0
    4.3520  -26.2050    9.4610 C   0  0  0  0  0  0  0  0  0  0  0  0
    3.9000  -25.6270   10.6370 C   0  0  0  0  0  0  0  0  0  0  0  0
    3.0600  -24.5270   10.5780 C   0  0  0  0  0  0  0  0  0  0  0  0
    2.6890  -24.0080    9.3480 C   0  0  0  0  0  0  0  0  0  0  0  0
    3.1530  -24.5810    8.1870 C   0  0  0  0  0  0  0  0  0  0  0  0
    3.9850  -25.6730    8.2480 C   0  0  0  0  0  0  0  0  0  0  0  0
    1.5930  -22.5730    9.2140 S   0  0  2  0  0  0  0  0  0  0  0  0
    1.7670  -21.6520   10.3340 O   0  0  0  0  0  0  0  0  0  0  0  0
    0.1870  -22.9640    9.3500 O   0  0  0  0  0  0  0  0  0  0  0  0
    1.8610  -21.7400    7.7540 N   0  0  0  0  0  0  0  0  0  0  0  0
  1  2  1  0
  2  3  2  0
  2  4  1  0
  4  5  1  0
  5  6  1  0
  6  7  2  0
  6 11  1  0
  7  8  1  0
 11 10  2  0
  8  9  2  0
  9 10  1  0
  9 12  1  0
 12 13  2  0
 12 14  2  0
 12 15  1  6
M  END
