SPE_0026
 OpenBabel04152009593D

 32 33  0  0  0  0  0  0  0  0999 V2000
    6.9627    1.3022   -0.4910 C   0  0  0  0  0  0  0  0  0  0  0  0
    6.4119    2.2899    0.4285 N   0  0  0  0  0  0  0  0  0  0  0  0
    5.0554    2.1568    0.7725 C   0  0  0  0  0  0  0  0  0  0  0  0
    4.0918    1.5911   -0.0679 C   0  0  0  0  0  0  0  0  0  0  0  0
    2.7786    1.4746    0.2253 N   0  0  0  0  0  0  0  0  0  0  0  0
    2.3885    1.9570    1.4242 C   0  0  0  0  0  0  0  0  0  0  0  0
    3.2356    2.5841    2.3365 C   0  0  0  0  0  0  0  0  0  0  0  0
    4.5814    2.7208    1.9681 C   0  0  0  0  0  0  0  0  0  0  0  0
    2.7931    3.0902    3.5854 N   0  0  0  0  0  0  0  0  0  0  0  0
    1.6747    2.6039    4.2408 C   0  0  0  0  0  0  0  0  0  0  0  0
    1.0635    1.5964    3.8969 O   0  0  0  0  0  0  0  0  0  0  0  0
    1.3121    3.4007    5.3148 N   0  0  0  0  0  0  0  0  0  0  0  0
    0.2084    3.0620    6.1373 C   0  0  0  0  0  0  0  0  0  0  0  0
   -0.0130    1.7466    6.5596 C   0  0  0  0  0  0  0  0  0  0  0  0
   -1.1407    1.4266    7.3181 C   0  0  0  0  0  0  0  0  0  0  0  0
   -2.0597    2.4180    7.6503 C   0  0  0  0  0  0  0  0  0  0  0  0
   -1.8341    3.7349    7.2483 C   0  0  0  0  0  0  0  0  0  0  0  0
   -0.6893    4.0617    6.5138 C   0  0  0  0  0  0  0  0  0  0  0  0
    8.0457    1.4377   -0.5635 H   0  0  0  0  0  0  0  0  0  0  0  0
    6.5536    1.4190   -1.5007 H   0  0  0  0  0  0  0  0  0  0  0  0
    6.7780    0.2811   -0.1366 H   0  0  0  0  0  0  0  0  0  0  0  0
    6.9978    2.4134    1.2518 H   0  0  0  0  0  0  0  0  0  0  0  0
    4.3500    1.1953   -1.0433 H   0  0  0  0  0  0  0  0  0  0  0  0
    1.3257    1.8387    1.6118 H   0  0  0  0  0  0  0  0  0  0  0  0
    5.2768    3.2279    2.6294 H   0  0  0  0  0  0  0  0  0  0  0  0
    3.4634    3.5790    4.1611 H   0  0  0  0  0  0  0  0  0  0  0  0
    1.4780    4.3876    5.1730 H   0  0  0  0  0  0  0  0  0  0  0  0
    0.6841    0.9540    6.2982 H   0  0  0  0  0  0  0  0  0  0  0  0
   -1.3079    0.3983    7.6302 H   0  0  0  0  0  0  0  0  0  0  0  0
   -2.9528    2.1640    8.2141 H   0  0  0  0  0  0  0  0  0  0  0  0
   -2.5629    4.5040    7.4894 H   0  0  0  0  0  0  0  0  0  0  0  0
   -0.5504    5.0882    6.1898 H   0  0  0  0  0  0  0  0  0  0  0  0
  1  2  1  0  0  0  0
  1 19  1  0  0  0  0
  1 20  1  0  0  0  0
  1 21  1  0  0  0  0
  2  3  1  0  0  0  0
  2 22  1  0  0  0  0
  3  4  1  0  0  0  0
  3  8  2  0  0  0  0
  4  5  2  0  0  0  0
  4 23  1  0  0  0  0
  5  6  1  0  0  0  0
  6  7  2  0  0  0  0
  6 24  1  0  0  0  0
  7  8  1  0  0  0  0
  7  9  1  0  0  0  0
  8 25  1  0  0  0  0
  9 10  1  0  0  0  0
  9 26  1  0  0  0  0
 10 11  2  0  0  0  0
 10 12  1  0  0  0  0
 12 13  1  0  0  0  0
 12 27  1  0  0  0  0
 13 14  1  0  0  0  0
 13 18  2  0  0  0  0
 14 15  2  0  0  0  0
 14 28  1  0  0  0  0
 15 16  1  0  0  0  0
 15 29  1  0  0  0  0
 16 17  2  0  0  0  0
 16 30  1  0  0  0  0
 17 18  1  0  0  0  0
 17 31  1  0  0  0  0
 18 32  1  0  0  0  0
M  END
$$$$
