SPE_0032
 OpenBabel04152009593D

 30 32  0  0  0  0  0  0  0  0999 V2000
    0.9852   -0.2841    0.2027 O   0  0  0  0  0  0  0  0  0  0  0  0
    2.1661   -0.0670   -0.0337 C   0  0  0  0  0  0  0  0  0  0  0  0
    2.7620    1.1804    0.0898 N   0  0  0  0  0  0  0  0  0  0  0  0
    2.1105    2.3447    0.4833 C   0  0  0  0  0  0  0  0  0  0  0  0
    0.9664    2.3749    1.2124 C   0  0  0  0  0  0  0  0  0  0  0  0
    0.2668    3.5216    1.5687 N   0  0  0  0  0  0  0  0  0  0  0  0
    0.7375    4.6671    1.1619 C   0  0  0  0  0  0  0  0  0  0  0  0
    1.9511    4.7504    0.4046 C   0  0  0  0  0  0  0  0  0  0  0  0
    2.6206    3.5916    0.0945 N   0  0  0  0  0  0  0  0  0  0  0  0
    3.7256    3.9734   -0.6280 C   0  0  0  0  0  0  0  0  0  0  0  0
    3.6414    5.3469   -0.7265 C   0  0  0  0  0  0  0  0  0  0  0  0
    2.5344    5.8259   -0.0737 N   0  0  0  0  0  0  0  0  0  0  0  0
    3.0622   -1.0160   -0.4967 N   0  0  0  0  0  0  0  0  0  0  0  0
    2.6981   -2.3003   -0.9667 C   0  0  0  0  0  0  0  0  0  0  0  0
    1.4047   -2.6086   -1.4076 C   0  0  0  0  0  0  0  0  0  0  0  0
    1.0924   -3.8893   -1.8681 C   0  0  0  0  0  0  0  0  0  0  0  0
    2.0724   -4.8759   -1.8987 C   0  0  0  0  0  0  0  0  0  0  0  0
    3.3672   -4.5770   -1.4785 C   0  0  0  0  0  0  0  0  0  0  0  0
    3.6819   -3.2916   -1.0240 C   0  0  0  0  0  0  0  0  0  0  0  0
    3.6287    1.2870   -0.4169 H   0  0  0  0  0  0  0  0  0  0  0  0
    0.5047    1.4620    1.5793 H   0  0  0  0  0  0  0  0  0  0  0  0
    0.1951    5.5943    1.4039 H   0  0  0  0  0  0  0  0  0  0  0  0
    4.4509    3.2734   -1.0120 H   0  0  0  0  0  0  0  0  0  0  0  0
    4.3215    6.0175   -1.2372 H   0  0  0  0  0  0  0  0  0  0  0  0
    4.0323   -0.8782   -0.2618 H   0  0  0  0  0  0  0  0  0  0  0  0
    0.6148   -1.8625   -1.4164 H   0  0  0  0  0  0  0  0  0  0  0  0
    0.0803   -4.1090   -2.1991 H   0  0  0  0  0  0  0  0  0  0  0  0
    1.8251   -5.8741   -2.2501 H   0  0  0  0  0  0  0  0  0  0  0  0
    4.1312   -5.3500   -1.4996 H   0  0  0  0  0  0  0  0  0  0  0  0
    4.6978   -3.0911   -0.6956 H   0  0  0  0  0  0  0  0  0  0  0  0
  1  2  2  0  0  0  0
  2  3  1  0  0  0  0
  2 13  1  0  0  0  0
  3  4  1  0  0  0  0
  3 20  1  0  0  0  0
  4  5  2  0  0  0  0
  4  9  1  0  0  0  0
  5  6  1  0  0  0  0
  5 21  1  0  0  0  0
  6  7  2  0  0  0  0
  7  8  1  0  0  0  0
  7 22  1  0  0  0  0
  8  9  1  0  0  0  0
  8 12  2  0  0  0  0
  9 10  1  0  0  0  0
 10 11  2  0  0  0  0
 10 23  1  0  0  0  0
 11 12  1  0  0  0  0
 11 24  1  0  0  0  0
 13 14  1  0  0  0  0
 13 25  1  0  0  0  0
 14 15  1  0  0  0  0
 14 19  2  0  0  0  0
 15 16  2  0  0  0  0
 15 26  1  0  0  0  0
 16 17  1  0  0  0  0
 16 27  1  0  0  0  0
 17 18  2  0  0  0  0
 17 28  1  0  0  0  0
 18 19  1  0  0  0  0
 18 29  1  0  0  0  0
 19 30  1  0  0  0  0
M  END
$$$$
