SPE_0029
 OpenBabel04152009593D

 32 34  0  0  0  0  0  0  0  0999 V2000
    1.0241   -0.0163    0.2957 O   0  0  0  0  0  0  0  0  0  0  0  0
    2.2268   -0.1939    0.1664 C   0  0  0  0  0  0  0  0  0  0  0  0
    2.8439   -0.4072   -1.0564 N   0  0  0  0  0  0  0  0  0  0  0  0
    2.1662   -0.3948   -2.3160 C   0  0  0  0  0  0  0  0  0  0  0  0
    0.8897    0.1594   -2.4654 C   0  0  0  0  0  0  0  0  0  0  0  0
    0.1944    0.1995   -3.6218 N   0  0  0  0  0  0  0  0  0  0  0  0
    0.8090   -0.3334   -4.6981 C   0  0  0  0  0  0  0  0  0  0  0  0
    2.0705   -0.8956   -4.7137 C   0  0  0  0  0  0  0  0  0  0  0  0
    2.7778   -0.9373   -3.4874 C   0  0  0  0  0  0  0  0  0  0  0  0
    4.0551   -1.5454   -3.5442 C   0  0  0  0  0  0  0  0  0  0  0  0
    4.5607   -2.0423   -4.7446 C   0  0  0  0  0  0  0  0  0  0  0  0
    3.7820   -1.9273   -5.8761 C   0  0  0  0  0  0  0  0  0  0  0  0
    2.5572   -1.3721   -5.8775 N   0  0  0  0  0  0  0  0  0  0  0  0
    3.1208   -0.2185    1.2246 N   0  0  0  0  0  0  0  0  0  0  0  0
    2.7296   -0.2424    2.5893 C   0  0  0  0  0  0  0  0  0  0  0  0
    1.4523   -0.6407    3.0019 C   0  0  0  0  0  0  0  0  0  0  0  0
    1.1017   -0.6544    4.3529 C   0  0  0  0  0  0  0  0  0  0  0  0
    2.0365   -0.2821    5.3139 C   0  0  0  0  0  0  0  0  0  0  0  0
    3.3147    0.1035    4.9209 C   0  0  0  0  0  0  0  0  0  0  0  0
    3.6657    0.1193    3.5641 C   0  0  0  0  0  0  0  0  0  0  0  0
    3.7677   -0.8023   -1.0198 H   0  0  0  0  0  0  0  0  0  0  0  0
    0.3513    0.6295   -1.6492 H   0  0  0  0  0  0  0  0  0  0  0  0
    0.2252   -0.2942   -5.6144 H   0  0  0  0  0  0  0  0  0  0  0  0
    4.6740   -1.6506   -2.6597 H   0  0  0  0  0  0  0  0  0  0  0  0
    5.5376   -2.5097   -4.7949 H   0  0  0  0  0  0  0  0  0  0  0  0
    4.1263   -2.2908   -6.8405 H   0  0  0  0  0  0  0  0  0  0  0  0
    4.0723    0.0433    1.0263 H   0  0  0  0  0  0  0  0  0  0  0  0
    0.6960   -0.9581    2.2912 H   0  0  0  0  0  0  0  0  0  0  0  0
    0.0995   -0.9562    4.6431 H   0  0  0  0  0  0  0  0  0  0  0  0
    1.7594   -0.2930    6.3662 H   0  0  0  0  0  0  0  0  0  0  0  0
    4.0397    0.3996    5.6746 H   0  0  0  0  0  0  0  0  0  0  0  0
    4.6673    0.4366    3.2908 H   0  0  0  0  0  0  0  0  0  0  0  0
  1  2  2  0  0  0  0
  2  3  1  0  0  0  0
  2 14  1  0  0  0  0
  3  4  1  0  0  0  0
  3 21  1  0  0  0  0
  4  5  1  0  0  0  0
  4  9  2  0  0  0  0
  5  6  2  0  0  0  0
  5 22  1  0  0  0  0
  6  7  1  0  0  0  0
  7  8  2  0  0  0  0
  7 23  1  0  0  0  0
  8  9  1  0  0  0  0
  8 13  1  0  0  0  0
  9 10  1  0  0  0  0
 10 11  2  0  0  0  0
 10 24  1  0  0  0  0
 11 12  1  0  0  0  0
 11 25  1  0  0  0  0
 12 13  2  0  0  0  0
 12 26  1  0  0  0  0
 14 15  1  0  0  0  0
 14 27  1  0  0  0  0
 15 16  1  0  0  0  0
 15 20  2  0  0  0  0
 16 17  2  0  0  0  0
 16 28  1  0  0  0  0
 17 18  1  0  0  0  0
 17 29  1  0  0  0  0
 18 19  2  0  0  0  0
 18 30  1  0  0  0  0
 19 20  1  0  0  0  0
 19 31  1  0  0  0  0
 20 32  1  0  0  0  0
M  END
$$$$
