SPE_0025
 OpenBabel04152009593D

 29 30  0  0  0  0  0  0  0  0999 V2000
    0.9434    0.2023    0.1561 O   0  0  0  0  0  0  0  0  0  0  0  0
    2.1558    0.0419    0.1253 C   0  0  0  0  0  0  0  0  0  0  0  0
    2.7739   -0.9440   -0.6252 N   0  0  0  0  0  0  0  0  0  0  0  0
    2.0864   -1.9648   -1.3343 C   0  0  0  0  0  0  0  0  0  0  0  0
    0.7399   -2.2819   -1.1469 C   0  0  0  0  0  0  0  0  0  0  0  0
    0.0923   -3.2831   -1.7910 N   0  0  0  0  0  0  0  0  0  0  0  0
    0.8174   -3.9920   -2.6805 C   0  0  0  0  0  0  0  0  0  0  0  0
    2.1480   -3.7310   -3.0018 C   0  0  0  0  0  0  0  0  0  0  0  0
    2.7953   -2.7346   -2.2624 C   0  0  0  0  0  0  0  0  0  0  0  0
    2.8735   -4.5789   -3.8508 N   0  0  0  0  0  0  0  0  0  0  0  0
    3.0597    0.8213    0.8257 N   0  0  0  0  0  0  0  0  0  0  0  0
    2.7080    1.8210    1.7640 C   0  0  0  0  0  0  0  0  0  0  0  0
    1.4474    1.8898    2.3708 C   0  0  0  0  0  0  0  0  0  0  0  0
    1.1474    2.8970    3.2898 C   0  0  0  0  0  0  0  0  0  0  0  0
    2.1065    3.8482    3.6169 C   0  0  0  0  0  0  0  0  0  0  0  0
    3.3688    3.7868    3.0299 C   0  0  0  0  0  0  0  0  0  0  0  0
    3.6731    2.7702    2.1164 C   0  0  0  0  0  0  0  0  0  0  0  0
    3.7690   -0.8767   -0.7671 H   0  0  0  0  0  0  0  0  0  0  0  0
    0.1109   -1.7650   -0.4307 H   0  0  0  0  0  0  0  0  0  0  0  0
    0.2752   -4.8067   -3.1499 H   0  0  0  0  0  0  0  0  0  0  0  0
    3.8526   -2.5549   -2.4296 H   0  0  0  0  0  0  0  0  0  0  0  0
    2.2946   -5.0594   -4.5364 H   0  0  0  0  0  0  0  0  0  0  0  0
    3.6821   -4.1415   -4.2793 H   0  0  0  0  0  0  0  0  0  0  0  0
    4.0261    0.7854    0.5447 H   0  0  0  0  0  0  0  0  0  0  0  0
    0.6734    1.1580    2.1609 H   0  0  0  0  0  0  0  0  0  0  0  0
    0.1607    2.9294    3.7451 H   0  0  0  0  0  0  0  0  0  0  0  0
    1.8682    4.6338    4.3292 H   0  0  0  0  0  0  0  0  0  0  0  0
    4.1153    4.5354    3.2814 H   0  0  0  0  0  0  0  0  0  0  0  0
    4.6616    2.7566    1.6662 H   0  0  0  0  0  0  0  0  0  0  0  0
  1  2  2  0  0  0  0
  2  3  1  0  0  0  0
  2 11  1  0  0  0  0
  3  4  1  0  0  0  0
  3 18  1  0  0  0  0
  4  5  1  0  0  0  0
  4  9  2  0  0  0  0
  5  6  2  0  0  0  0
  5 19  1  0  0  0  0
  6  7  1  0  0  0  0
  7  8  2  0  0  0  0
  7 20  1  0  0  0  0
  8  9  1  0  0  0  0
  8 10  1  0  0  0  0
  9 21  1  0  0  0  0
 10 22  1  0  0  0  0
 10 23  1  0  0  0  0
 11 12  1  0  0  0  0
 11 24  1  0  0  0  0
 12 13  1  0  0  0  0
 12 17  2  0  0  0  0
 13 14  2  0  0  0  0
 13 25  1  0  0  0  0
 14 15  1  0  0  0  0
 14 26  1  0  0  0  0
 15 16  2  0  0  0  0
 15 27  1  0  0  0  0
 16 17  1  0  0  0  0
 16 28  1  0  0  0  0
 17 29  1  0  0  0  0
M  END
$$$$
