SPE_0043
 OpenBabel04152009593D

 37 39  0  0  0  0  0  0  0  0999 V2000
    1.0924   -0.5771   -0.2758 O   0  0  0  0  0  0  0  0  0  0  0  0
    2.1836   -0.1517    0.0943 C   0  0  0  0  0  0  0  0  0  0  0  0
    2.6544   -0.2476    1.3886 N   0  0  0  0  0  0  0  0  0  0  0  0
    2.0018   -0.8761    2.4317 C   0  0  0  0  0  0  0  0  0  0  0  0
    1.0791   -1.8592    2.3056 C   0  0  0  0  0  0  0  0  0  0  0  0
    0.3943   -2.4745    3.3462 N   0  0  0  0  0  0  0  0  0  0  0  0
    0.6491   -2.0422    4.5435 C   0  0  0  0  0  0  0  0  0  0  0  0
    1.5802   -1.0276    4.7494 N   0  0  0  0  0  0  0  0  0  0  0  0
    2.2957   -0.4228    3.7488 C   0  0  0  0  0  0  0  0  0  0  0  0
    3.0713    0.5296    4.3605 C   0  0  0  0  0  0  0  0  0  0  0  0
    2.7420    0.4300    5.7287 C   0  0  0  0  0  0  0  0  0  0  0  0
    1.8485   -0.5332    5.9770 N   0  0  0  0  0  0  0  0  0  0  0  0
    3.0235    0.6705   -0.8707 C   0  0  0  0  0  0  0  0  0  0  0  0
    4.5574    0.5533   -0.8040 C   0  0  0  0  0  0  0  0  0  0  0  0
    5.0554   -0.8857   -1.0209 C   0  0  0  0  0  0  0  0  0  0  0  0
    4.8786   -1.3703   -2.4585 C   0  0  0  0  0  0  0  0  0  0  0  0
    5.5093   -0.4117   -3.4647 C   0  0  0  0  0  0  0  0  0  0  0  0
    5.0117    1.0184   -3.2817 C   0  0  0  0  0  0  0  0  0  0  0  0
    5.2052    1.4934   -1.8402 C   0  0  0  0  0  0  0  0  0  0  0  0
    3.4452    0.3312    1.6414 H   0  0  0  0  0  0  0  0  0  0  0  0
    0.8189   -2.2534    1.3264 H   0  0  0  0  0  0  0  0  0  0  0  0
    0.1326   -2.4638    5.4212 H   0  0  0  0  0  0  0  0  0  0  0  0
    3.7530    1.2334    3.9037 H   0  0  0  0  0  0  0  0  0  0  0  0
    3.1107    1.0252    6.5547 H   0  0  0  0  0  0  0  0  0  0  0  0
    2.7290    1.7185   -0.7317 H   0  0  0  0  0  0  0  0  0  0  0  0
    2.6813    0.3787   -1.8684 H   0  0  0  0  0  0  0  0  0  0  0  0
    4.8920    0.8825    0.1873 H   0  0  0  0  0  0  0  0  0  0  0  0
    4.5538   -1.5762   -0.3358 H   0  0  0  0  0  0  0  0  0  0  0  0
    6.1240   -0.9261   -0.7680 H   0  0  0  0  0  0  0  0  0  0  0  0
    3.8125   -1.4906   -2.6830 H   0  0  0  0  0  0  0  0  0  0  0  0
    5.3338   -2.3617   -2.5661 H   0  0  0  0  0  0  0  0  0  0  0  0
    5.2919   -0.7509   -4.4837 H   0  0  0  0  0  0  0  0  0  0  0  0
    6.5999   -0.4306   -3.3486 H   0  0  0  0  0  0  0  0  0  0  0  0
    3.9535    1.0795   -3.5610 H   0  0  0  0  0  0  0  0  0  0  0  0
    5.5490    1.6849   -3.9660 H   0  0  0  0  0  0  0  0  0  0  0  0
    4.8076    2.5108   -1.7351 H   0  0  0  0  0  0  0  0  0  0  0  0
    6.2830    1.5618   -1.6382 H   0  0  0  0  0  0  0  0  0  0  0  0
  1  2  2  0  0  0  0
  2  3  1  0  0  0  0
  2 13  1  0  0  0  0
  3  4  1  0  0  0  0
  3 20  1  0  0  0  0
  4  5  2  0  0  0  0
  4  9  1  0  0  0  0
  5  6  1  0  0  0  0
  5 21  1  0  0  0  0
  6  7  2  0  0  0  0
  7  8  1  0  0  0  0
  7 22  1  0  0  0  0
  8  9  1  0  0  0  0
  8 12  1  0  0  0  0
  9 10  2  0  0  0  0
 10 11  1  0  0  0  0
 10 23  1  0  0  0  0
 11 12  2  0  0  0  0
 11 24  1  0  0  0  0
 13 14  1  0  0  0  0
 13 25  1  0  0  0  0
 13 26  1  0  0  0  0
 14 15  1  0  0  0  0
 14 19  1  0  0  0  0
 14 27  1  0  0  0  0
 15 16  1  0  0  0  0
 15 28  1  0  0  0  0
 15 29  1  0  0  0  0
 16 17  1  0  0  0  0
 16 30  1  0  0  0  0
 16 31  1  0  0  0  0
 17 18  1  0  0  0  0
 17 32  1  0  0  0  0
 17 33  1  0  0  0  0
 18 19  1  0  0  0  0
 18 34  1  0  0  0  0
 18 35  1  0  0  0  0
 19 36  1  0  0  0  0
 19 37  1  0  0  0  0
M  END
$$$$
