SPE_0037
 OpenBabel04152009593D

 36 37  0  0  0  0  0  0  0  0999 V2000
    0.8521   -0.1568    0.8710 O   0  0  0  0  0  0  0  0  0  0  0  0
    1.9111    0.0073    0.2639 C   0  0  0  0  0  0  0  0  0  0  0  0
    2.2080    1.1322   -0.4801 N   0  0  0  0  0  0  0  0  0  0  0  0
    1.2797    2.1669   -0.8003 C   0  0  0  0  0  0  0  0  0  0  0  0
   -0.1016    2.0633   -0.6314 C   0  0  0  0  0  0  0  0  0  0  0  0
   -0.9994    3.0101   -1.0081 N   0  0  0  0  0  0  0  0  0  0  0  0
   -0.4948    4.1299   -1.5621 C   0  0  0  0  0  0  0  0  0  0  0  0
    0.8638    4.3905   -1.7149 C   0  0  0  0  0  0  0  0  0  0  0  0
    1.7515    3.3547   -1.3774 C   0  0  0  0  0  0  0  0  0  0  0  0
    1.3124    5.5296   -2.3956 N   0  0  0  0  0  0  0  0  0  0  0  0
    2.9042   -1.1548    0.2330 C   0  0  0  0  0  0  0  0  0  0  0  0
    4.4208   -0.9155    0.1440 C   0  0  0  0  0  0  0  0  0  0  0  0
    5.0090   -0.1801    1.3558 C   0  0  0  0  0  0  0  0  0  0  0  0
    4.9861   -1.0061    2.6421 C   0  0  0  0  0  0  0  0  0  0  0  0
    5.6204   -2.3852    2.4788 C   0  0  0  0  0  0  0  0  0  0  0  0
    5.1434   -3.1308    1.2352 C   0  0  0  0  0  0  0  0  0  0  0  0
    5.1646   -2.2605   -0.0237 C   0  0  0  0  0  0  0  0  0  0  0  0
    3.1652    1.2781   -0.7703 H   0  0  0  0  0  0  0  0  0  0  0  0
   -0.5748    1.1797   -0.2165 H   0  0  0  0  0  0  0  0  0  0  0  0
   -1.2427    4.8465   -1.8912 H   0  0  0  0  0  0  0  0  0  0  0  0
    2.8121    3.4912   -1.5626 H   0  0  0  0  0  0  0  0  0  0  0  0
    0.6730    6.3192   -2.3483 H   0  0  0  0  0  0  0  0  0  0  0  0
    2.2658    5.7998   -2.1704 H   0  0  0  0  0  0  0  0  0  0  0  0
    2.5951   -1.7790   -0.6158 H   0  0  0  0  0  0  0  0  0  0  0  0
    2.6904   -1.7412    1.1354 H   0  0  0  0  0  0  0  0  0  0  0  0
    4.6230   -0.3160   -0.7519 H   0  0  0  0  0  0  0  0  0  0  0  0
    4.4852    0.7674    1.5189 H   0  0  0  0  0  0  0  0  0  0  0  0
    6.0528    0.0791    1.1310 H   0  0  0  0  0  0  0  0  0  0  0  0
    3.9538   -1.1151    2.9928 H   0  0  0  0  0  0  0  0  0  0  0  0
    5.5231   -0.4607    3.4280 H   0  0  0  0  0  0  0  0  0  0  0  0
    5.4068   -2.9904    3.3683 H   0  0  0  0  0  0  0  0  0  0  0  0
    6.7101   -2.2765    2.4321 H   0  0  0  0  0  0  0  0  0  0  0  0
    4.1322   -3.5181    1.4045 H   0  0  0  0  0  0  0  0  0  0  0  0
    5.7826   -4.0090    1.0787 H   0  0  0  0  0  0  0  0  0  0  0  0
    4.7391   -2.8277   -0.8606 H   0  0  0  0  0  0  0  0  0  0  0  0
    6.2100   -2.0575   -0.2898 H   0  0  0  0  0  0  0  0  0  0  0  0
  1  2  2  0  0  0  0
  2  3  1  0  0  0  0
  2 11  1  0  0  0  0
  3  4  1  0  0  0  0
  3 18  1  0  0  0  0
  4  5  1  0  0  0  0
  4  9  2  0  0  0  0
  5  6  2  0  0  0  0
  5 19  1  0  0  0  0
  6  7  1  0  0  0  0
  7  8  2  0  0  0  0
  7 20  1  0  0  0  0
  8  9  1  0  0  0  0
  8 10  1  0  0  0  0
  9 21  1  0  0  0  0
 10 22  1  0  0  0  0
 10 23  1  0  0  0  0
 11 12  1  0  0  0  0
 11 24  1  0  0  0  0
 11 25  1  0  0  0  0
 12 13  1  0  0  0  0
 12 17  1  0  0  0  0
 12 26  1  0  0  0  0
 13 14  1  0  0  0  0
 13 27  1  0  0  0  0
 13 28  1  0  0  0  0
 14 15  1  0  0  0  0
 14 29  1  0  0  0  0
 14 30  1  0  0  0  0
 15 16  1  0  0  0  0
 15 31  1  0  0  0  0
 15 32  1  0  0  0  0
 16 17  1  0  0  0  0
 16 33  1  0  0  0  0
 16 34  1  0  0  0  0
 17 35  1  0  0  0  0
 17 36  1  0  0  0  0
M  END
$$$$
