SPE_0036
 OpenBabel04152009593D

 34 35  0  0  0  0  0  0  0  0999 V2000
    0.9944   -0.1236   -0.6570 O   0  0  0  0  0  0  0  0  0  0  0  0
    2.0983   -0.0807   -0.1053 C   0  0  0  0  0  0  0  0  0  0  0  0
    2.5966   -1.0463    0.7423 N   0  0  0  0  0  0  0  0  0  0  0  0
    1.9246   -2.2467    1.0805 C   0  0  0  0  0  0  0  0  0  0  0  0
    0.8325   -2.7501    0.3722 C   0  0  0  0  0  0  0  0  0  0  0  0
    0.1736   -3.8904    0.8187 C   0  0  0  0  0  0  0  0  0  0  0  0
    0.6424   -4.5169    1.9570 C   0  0  0  0  0  0  0  0  0  0  0  0
    1.7231   -4.0974    2.6510 N   0  0  0  0  0  0  0  0  0  0  0  0
    2.3394   -2.9757    2.1921 C   0  0  0  0  0  0  0  0  0  0  0  0
    2.9168    1.1844   -0.2519 C   0  0  0  0  0  0  0  0  0  0  0  0
    4.4458    1.0828   -0.3431 C   0  0  0  0  0  0  0  0  0  0  0  0
    4.9326    0.2142   -1.5136 C   0  0  0  0  0  0  0  0  0  0  0  0
    4.6727    0.8442   -2.8816 C   0  0  0  0  0  0  0  0  0  0  0  0
    5.2031    2.2739   -2.9749 C   0  0  0  0  0  0  0  0  0  0  0  0
    4.7362    3.1491   -1.8162 C   0  0  0  0  0  0  0  0  0  0  0  0
    5.0474    2.4982   -0.4675 C   0  0  0  0  0  0  0  0  0  0  0  0
    3.4280   -0.8255    1.2754 H   0  0  0  0  0  0  0  0  0  0  0  0
    0.4676   -2.2764   -0.5327 H   0  0  0  0  0  0  0  0  0  0  0  0
   -0.6942   -4.2701    0.2866 H   0  0  0  0  0  0  0  0  0  0  0  0
    0.1456   -5.3972    2.3549 H   0  0  0  0  0  0  0  0  0  0  0  0
    3.1850   -2.6646    2.7945 H   0  0  0  0  0  0  0  0  0  0  0  0
    2.6385    1.8373    0.5858 H   0  0  0  0  0  0  0  0  0  0  0  0
    2.5304    1.6642   -1.1593 H   0  0  0  0  0  0  0  0  0  0  0  0
    4.8254    0.6427    0.5879 H   0  0  0  0  0  0  0  0  0  0  0  0
    4.4748   -0.7803   -1.4747 H   0  0  0  0  0  0  0  0  0  0  0  0
    6.0141    0.0564   -1.4040 H   0  0  0  0  0  0  0  0  0  0  0  0
    3.5975    0.8361   -3.0941 H   0  0  0  0  0  0  0  0  0  0  0  0
    5.1476    0.2325   -3.6575 H   0  0  0  0  0  0  0  0  0  0  0  0
    4.8869    2.7207   -3.9242 H   0  0  0  0  0  0  0  0  0  0  0  0
    6.2995    2.2513   -2.9842 H   0  0  0  0  0  0  0  0  0  0  0  0
    3.6607    3.3409   -1.9091 H   0  0  0  0  0  0  0  0  0  0  0  0
    5.2235    4.1284   -1.8739 H   0  0  0  0  0  0  0  0  0  0  0  0
    4.6794    3.1387    0.3427 H   0  0  0  0  0  0  0  0  0  0  0  0
    6.1367    2.4381   -0.3470 H   0  0  0  0  0  0  0  0  0  0  0  0
  1  2  2  0  0  0  0
  2  3  1  0  0  0  0
  2 10  1  0  0  0  0
  3  4  1  0  0  0  0
  3 17  1  0  0  0  0
  4  5  1  0  0  0  0
  4  9  2  0  0  0  0
  5  6  2  0  0  0  0
  5 18  1  0  0  0  0
  6  7  1  0  0  0  0
  6 19  1  0  0  0  0
  7  8  2  0  0  0  0
  7 20  1  0  0  0  0
  8  9  1  0  0  0  0
  9 21  1  0  0  0  0
 10 11  1  0  0  0  0
 10 22  1  0  0  0  0
 10 23  1  0  0  0  0
 11 12  1  0  0  0  0
 11 16  1  0  0  0  0
 11 24  1  0  0  0  0
 12 13  1  0  0  0  0
 12 25  1  0  0  0  0
 12 26  1  0  0  0  0
 13 14  1  0  0  0  0
 13 27  1  0  0  0  0
 13 28  1  0  0  0  0
 14 15  1  0  0  0  0
 14 29  1  0  0  0  0
 14 30  1  0  0  0  0
 15 16  1  0  0  0  0
 15 31  1  0  0  0  0
 15 32  1  0  0  0  0
 16 33  1  0  0  0  0
 16 34  1  0  0  0  0
M  END
$$$$
