SPE_0041
 OpenBabel04152009593D

 39 41  0  0  0  0  0  0  0  0999 V2000
    2.2582   -0.6006   -0.6989 O   0  0  0  0  0  0  0  0  0  0  0  0
    1.9652    0.2468    0.1310 C   0  0  0  0  0  0  0  0  0  0  0  0
    0.6756    0.6516    0.4609 N   0  0  0  0  0  0  0  0  0  0  0  0
   -0.5608    0.1947   -0.0883 C   0  0  0  0  0  0  0  0  0  0  0  0
   -0.6345   -0.8151   -1.0445 C   0  0  0  0  0  0  0  0  0  0  0  0
   -1.7966   -1.2997   -1.5482 N   0  0  0  0  0  0  0  0  0  0  0  0
   -2.9359   -0.7499   -1.0661 C   0  0  0  0  0  0  0  0  0  0  0  0
   -3.0163    0.2635   -0.1313 C   0  0  0  0  0  0  0  0  0  0  0  0
   -1.7909    0.7722    0.3602 C   0  0  0  0  0  0  0  0  0  0  0  0
   -1.9095    1.8557    1.2693 C   0  0  0  0  0  0  0  0  0  0  0  0
   -3.1521    2.3397    1.6630 C   0  0  0  0  0  0  0  0  0  0  0  0
   -4.2768    1.7339    1.1469 C   0  0  0  0  0  0  0  0  0  0  0  0
   -4.2283    0.7214    0.2605 N   0  0  0  0  0  0  0  0  0  0  0  0
    3.0145    1.0155    0.9484 C   0  0  0  0  0  0  0  0  0  0  0  0
    4.4824    0.6025    0.6957 C   0  0  0  0  0  0  0  0  0  0  0  0
    5.0231    1.0134   -0.6828 C   0  0  0  0  0  0  0  0  0  0  0  0
    5.2951    2.5089   -0.8356 C   0  0  0  0  0  0  0  0  0  0  0  0
    6.1209    3.0993    0.3029 C   0  0  0  0  0  0  0  0  0  0  0  0
    5.6549    2.6636    1.6874 C   0  0  0  0  0  0  0  0  0  0  0  0
    5.4168    1.1576    1.7882 C   0  0  0  0  0  0  0  0  0  0  0  0
    0.6109    1.3198    1.2156 H   0  0  0  0  0  0  0  0  0  0  0  0
    0.2402   -1.3038   -1.4524 H   0  0  0  0  0  0  0  0  0  0  0  0
   -3.8505   -1.1637   -1.4824 H   0  0  0  0  0  0  0  0  0  0  0  0
   -1.0347    2.3564    1.6710 H   0  0  0  0  0  0  0  0  0  0  0  0
   -3.2399    3.1708    2.3550 H   0  0  0  0  0  0  0  0  0  0  0  0
   -5.2742    2.0590    1.4330 H   0  0  0  0  0  0  0  0  0  0  0  0
    2.7781    0.8134    2.0037 H   0  0  0  0  0  0  0  0  0  0  0  0
    2.8712    2.0820    0.7726 H   0  0  0  0  0  0  0  0  0  0  0  0
    4.5279   -0.4933    0.7533 H   0  0  0  0  0  0  0  0  0  0  0  0
    4.3463    0.6904   -1.4819 H   0  0  0  0  0  0  0  0  0  0  0  0
    5.9665    0.4760   -0.8520 H   0  0  0  0  0  0  0  0  0  0  0  0
    4.3465    3.0492   -0.9193 H   0  0  0  0  0  0  0  0  0  0  0  0
    5.8311    2.6769   -1.7789 H   0  0  0  0  0  0  0  0  0  0  0  0
    6.0901    4.1950    0.2395 H   0  0  0  0  0  0  0  0  0  0  0  0
    7.1722    2.8152    0.1719 H   0  0  0  0  0  0  0  0  0  0  0  0
    4.7405    3.2041    1.9556 H   0  0  0  0  0  0  0  0  0  0  0  0
    6.4141    2.9560    2.4234 H   0  0  0  0  0  0  0  0  0  0  0  0
    5.0224    0.9199    2.7832 H   0  0  0  0  0  0  0  0  0  0  0  0
    6.3849    0.6466    1.7113 H   0  0  0  0  0  0  0  0  0  0  0  0
  1  2  2  0  0  0  0
  2  3  1  0  0  0  0
  2 14  1  0  0  0  0
  3  4  1  0  0  0  0
  3 21  1  0  0  0  0
  4  5  1  0  0  0  0
  4  9  2  0  0  0  0
  5  6  2  0  0  0  0
  5 22  1  0  0  0  0
  6  7  1  0  0  0  0
  7  8  2  0  0  0  0
  7 23  1  0  0  0  0
  8  9  1  0  0  0  0
  8 13  1  0  0  0  0
  9 10  1  0  0  0  0
 10 11  2  0  0  0  0
 10 24  1  0  0  0  0
 11 12  1  0  0  0  0
 11 25  1  0  0  0  0
 12 13  2  0  0  0  0
 12 26  1  0  0  0  0
 14 15  1  0  0  0  0
 14 27  1  0  0  0  0
 14 28  1  0  0  0  0
 15 16  1  0  0  0  0
 15 20  1  0  0  0  0
 15 29  1  0  0  0  0
 16 17  1  0  0  0  0
 16 30  1  0  0  0  0
 16 31  1  0  0  0  0
 17 18  1  0  0  0  0
 17 32  1  0  0  0  0
 17 33  1  0  0  0  0
 18 19  1  0  0  0  0
 18 34  1  0  0  0  0
 18 35  1  0  0  0  0
 19 20  1  0  0  0  0
 19 36  1  0  0  0  0
 19 37  1  0  0  0  0
 20 38  1  0  0  0  0
 20 39  1  0  0  0  0
M  END
$$$$
