SPE_0042
 OpenBabel04152009593D

 38 40  0  0  0  0  0  0  0  0999 V2000
    0.9152    0.8119   -0.5177 O   0  0  0  0  0  0  0  0  0  0  0  0
    1.9894    0.2537   -0.3028 C   0  0  0  0  0  0  0  0  0  0  0  0
    2.3914   -0.9269   -0.8910 N   0  0  0  0  0  0  0  0  0  0  0  0
    1.6671   -1.6920   -1.8351 C   0  0  0  0  0  0  0  0  0  0  0  0
    0.3457   -1.4659   -2.2248 C   0  0  0  0  0  0  0  0  0  0  0  0
   -0.3404   -2.1929   -3.1467 N   0  0  0  0  0  0  0  0  0  0  0  0
    0.2774   -3.2193   -3.7656 C   0  0  0  0  0  0  0  0  0  0  0  0
    1.5893   -3.5192   -3.4253 C   0  0  0  0  0  0  0  0  0  0  0  0
    2.2958   -2.7947   -2.4646 C   0  0  0  0  0  0  0  0  0  0  0  0
    3.5849   -3.4029   -2.3697 C   0  0  0  0  0  0  0  0  0  0  0  0
    3.6356   -4.4407   -3.2722 C   0  0  0  0  0  0  0  0  0  0  0  0
    2.4261   -4.4982   -3.9100 N   0  0  0  0  0  0  0  0  0  0  0  0
    2.9259    0.8288    0.7627 C   0  0  0  0  0  0  0  0  0  0  0  0
    4.4474    0.6306    0.6179 C   0  0  0  0  0  0  0  0  0  0  0  0
    5.0536    1.3722   -0.5820 C   0  0  0  0  0  0  0  0  0  0  0  0
    5.1434    2.8886   -0.3990 C   0  0  0  0  0  0  0  0  0  0  0  0
    5.7726    3.3057    0.9277 C   0  0  0  0  0  0  0  0  0  0  0  0
    5.2057    2.5572    2.1274 C   0  0  0  0  0  0  0  0  0  0  0  0
    5.1879    1.0463    1.9042 C   0  0  0  0  0  0  0  0  0  0  0  0
    3.3206   -1.2659   -0.6966 H   0  0  0  0  0  0  0  0  0  0  0  0
   -0.2499   -0.6695   -1.7902 H   0  0  0  0  0  0  0  0  0  0  0  0
   -0.2939   -3.7663   -4.5054 H   0  0  0  0  0  0  0  0  0  0  0  0
    4.3970   -3.1136   -1.7147 H   0  0  0  0  0  0  0  0  0  0  0  0
    4.4254   -5.1388   -3.5170 H   0  0  0  0  0  0  0  0  0  0  0  0
    2.1794   -5.1596   -4.6345 H   0  0  0  0  0  0  0  0  0  0  0  0
    2.5944    0.3916    1.7153 H   0  0  0  0  0  0  0  0  0  0  0  0
    2.7044    1.9023    0.8198 H   0  0  0  0  0  0  0  0  0  0  0  0
    4.6505   -0.4403    0.4861 H   0  0  0  0  0  0  0  0  0  0  0  0
    4.4963    1.1485   -1.4980 H   0  0  0  0  0  0  0  0  0  0  0  0
    6.0717    0.9892   -0.7441 H   0  0  0  0  0  0  0  0  0  0  0  0
    4.1435    3.3277   -0.4827 H   0  0  0  0  0  0  0  0  0  0  0  0
    5.7375    3.3130   -1.2186 H   0  0  0  0  0  0  0  0  0  0  0  0
    5.6297    4.3841    1.0739 H   0  0  0  0  0  0  0  0  0  0  0  0
    6.8563    3.1414    0.8823 H   0  0  0  0  0  0  0  0  0  0  0  0
    4.1939    2.9152    2.3452 H   0  0  0  0  0  0  0  0  0  0  0  0
    5.8124    2.7829    3.0131 H   0  0  0  0  0  0  0  0  0  0  0  0
    4.7420    0.5518    2.7748 H   0  0  0  0  0  0  0  0  0  0  0  0
    6.2247    0.6893    1.8439 H   0  0  0  0  0  0  0  0  0  0  0  0
  1  2  2  0  0  0  0
  2  3  1  0  0  0  0
  2 13  1  0  0  0  0
  3  4  1  0  0  0  0
  3 20  1  0  0  0  0
  4  5  1  0  0  0  0
  4  9  2  0  0  0  0
  5  6  2  0  0  0  0
  5 21  1  0  0  0  0
  6  7  1  0  0  0  0
  7  8  2  0  0  0  0
  7 22  1  0  0  0  0
  8  9  1  0  0  0  0
  8 12  1  0  0  0  0
  9 10  1  0  0  0  0
 10 11  2  0  0  0  0
 10 23  1  0  0  0  0
 11 12  1  0  0  0  0
 11 24  1  0  0  0  0
 12 25  1  0  0  0  0
 13 14  1  0  0  0  0
 13 26  1  0  0  0  0
 13 27  1  0  0  0  0
 14 15  1  0  0  0  0
 14 19  1  0  0  0  0
 14 28  1  0  0  0  0
 15 16  1  0  0  0  0
 15 29  1  0  0  0  0
 15 30  1  0  0  0  0
 16 17  1  0  0  0  0
 16 31  1  0  0  0  0
 16 32  1  0  0  0  0
 17 18  1  0  0  0  0
 17 33  1  0  0  0  0
 17 34  1  0  0  0  0
 18 19  1  0  0  0  0
 18 35  1  0  0  0  0
 18 36  1  0  0  0  0
 19 37  1  0  0  0  0
 19 38  1  0  0  0  0
M  END
$$$$
